
##########################################################################
#               Crystallographic Information Format file
#               Produced by PyCifRW module
#
#  This is a CIF file.  CIF has been adopted by the International
#  Union of Crystallography as the standard for data archiving and
#  transmission.
#
#  For information on this file format, follow the CIF links at
#  http://www.iucr.org
##########################################################################

data_image0

_cell_length_a                          14.751
_cell_length_b                          14.751
_cell_length_c                          14.751
_cell_angle_alpha                       109.471
_cell_angle_beta                        109.471
_cell_angle_gamma                       109.471
_symmetry_space_group_name_H-M          'P 1'
_symmetry_int_tables_number             1
loop_
  _symmetry_equiv_pos_as_xyz
         'x, y, z' 
loop_
  _atom_site_label
  _atom_site_occupancy
  _atom_site_fract_x
  _atom_site_fract_y
  _atom_site_fract_z
  _atom_site_thermal_displace_type
  _atom_site_B_iso_or_equiv
  _atom_site_type_symbol
  _atom_site_charge
         C1        1.0000    0.24592   0.62946   0.62946   Biso      1.000     C          0.276935  
         C2        1.0000    0.75408   0.38354   0.38354   Biso      1.000     C          0.276916  
         C3        1.0000    0.68250   0.21195   0.26765   Biso      1.000     C          0.004883  
         C4        1.0000    0.52945   0.58515   0.31750   Biso      1.000     C          0.004814  
         C5        1.0000    0.47055   0.05570   0.78805   Biso      1.000     C          0.00491   
         C6        1.0000    0.26765   0.21195   0.68250   Biso      1.000     C          0.004884  
         C7        1.0000    0.78805   0.05570   0.47055   Biso      1.000     C          0.004912  
         C8        1.0000    0.31750   0.58515   0.52945   Biso      1.000     C          0.004814  
         C9        1.0000    0.58515   0.31750   0.52945   Biso      1.000     C          0.004814  
         C10       1.0000    0.94430   0.73235   0.41485   Biso      1.000     C          0.004777  
         C11       1.0000    0.68250   0.26765   0.21195   Biso      1.000     C          0.004929  
         C12       1.0000    0.73235   0.94430   0.41485   Biso      1.000     C          0.004822  
         C13       1.0000    0.18940   0.68040   0.68040   Biso      1.000     C          -0.274246           
         C14       1.0000    0.49100   0.49100   0.81060   Biso      1.000     C          -0.27424299999999996          
         C15       1.0000    0.62946   0.24592   0.62946   Biso      1.000     C          0.276938  
         C16       1.0000    0.31960   0.00000   0.50900   Biso      1.000     C          -0.27424499999999996          
         C17       1.0000    0.00000   0.61646   0.37054   Biso      1.000     C          0.276925  
         C18       1.0000    0.05570   0.78805   0.47055   Biso      1.000     C          0.004956  
         C19       1.0000    0.49100   0.81060   0.49100   Biso      1.000     C          -0.27423200000000003          
         C20       1.0000    0.00000   0.31960   0.50900   Biso      1.000     C          -0.274253           
         C21       1.0000    0.78805   0.47055   0.05570   Biso      1.000     C          0.004914  
         C22       1.0000    0.68040   0.18940   0.68040   Biso      1.000     C          -0.27424899999999997          
         C23       1.0000    0.81060   0.49100   0.49100   Biso      1.000     C          -0.274225           
         C24       1.0000    0.52945   0.31750   0.58515   Biso      1.000     C          0.0048590000000000005         
         C25       1.0000    0.38354   0.38354   0.75408   Biso      1.000     C          0.276931  
         C26       1.0000    0.61646   0.00000   0.37054   Biso      1.000     C          0.276922  
         C27       1.0000    0.73235   0.41485   0.94430   Biso      1.000     C          0.004824  
         C28       1.0000    0.00000   0.50900   0.31960   Biso      1.000     C          -0.27426500000000004          
         C29       1.0000    0.00000   0.37054   0.61646   Biso      1.000     C          0.276912  
         C30       1.0000    0.26765   0.68250   0.21195   Biso      1.000     C          0.0048850000000000005         
         C31       1.0000    0.31960   0.50900   0.00000   Biso      1.000     C          -0.274266           
         C32       1.0000    0.21195   0.68250   0.26765   Biso      1.000     C          0.0049299999999999995         
         C33       1.0000    0.37054   0.00000   0.61646   Biso      1.000     C          0.276909  
         C34       1.0000    0.50900   0.31960   0.00000   Biso      1.000     C          -0.27426799999999996          
         C35       1.0000    0.61646   0.37054   0.00000   Biso      1.000     C          0.27692100000000003           
         C36       1.0000    0.21195   0.26765   0.68250   Biso      1.000     C          0.0049299999999999995         
         C37       1.0000    0.47055   0.78805   0.05570   Biso      1.000     C          0.004913  
         C38       1.0000    0.62946   0.62946   0.24592   Biso      1.000     C          0.276938  
         C39       1.0000    0.50900   0.00000   0.31960   Biso      1.000     C          -0.274262           
         C40       1.0000    0.58515   0.52945   0.31750   Biso      1.000     C          0.0048579999999999995         
         C41       1.0000    0.68040   0.68040   0.18940   Biso      1.000     C          -0.274246           
         C42       1.0000    0.41485   0.73235   0.94430   Biso      1.000     C          0.004824  
         C43       1.0000    0.05570   0.47055   0.78805   Biso      1.000     C          0.004911  
         C44       1.0000    0.37054   0.61646   0.00000   Biso      1.000     C          0.276922  
         C45       1.0000    0.38354   0.75408   0.38354   Biso      1.000     C          0.276919  
         C46       1.0000    0.31750   0.52945   0.58515   Biso      1.000     C          0.0048590000000000005         
         C47       1.0000    0.94430   0.41485   0.73235   Biso      1.000     C          0.004822  
         C48       1.0000    0.41485   0.94430   0.73235   Biso      1.000     C          0.0048200000000000005         
         H1        1.0000    0.13600   0.65640   0.23680   Biso      1.000     H          0.118203  
         H2        1.0000    0.89920   0.41960   0.76320   Biso      1.000     H          0.11823099999999999           
         H3        1.0000    0.58040   0.34360   0.47960   Biso      1.000     H          0.118256  
         H4        1.0000    0.86400   0.10080   0.52040   Biso      1.000     H          0.11818800000000002           
         H5        1.0000    0.34360   0.47960   0.58040   Biso      1.000     H          0.118253  
         H6        1.0000    0.23680   0.65640   0.13600   Biso      1.000     H          0.11820599999999999           
         H7        1.0000    0.65640   0.13600   0.23680   Biso      1.000     H          0.11820599999999999           
         H8        1.0000    0.23680   0.13600   0.65640   Biso      1.000     H          0.11820599999999999           
         H9        1.0000    0.41960   0.89920   0.76320   Biso      1.000     H          0.11823099999999999           
         H10       1.0000    0.65640   0.23680   0.13600   Biso      1.000     H          0.118203  
         H11       1.0000    0.41960   0.76320   0.89920   Biso      1.000     H          0.11823099999999999           
         H12       1.0000    0.10080   0.52040   0.86400   Biso      1.000     H          0.11818900000000002           
         H13       1.0000    0.89920   0.76320   0.41960   Biso      1.000     H          0.11823399999999999           
         H14       1.0000    0.58040   0.47960   0.34360   Biso      1.000     H          0.118253  
         H15       1.0000    0.76320   0.41960   0.89920   Biso      1.000     H          0.11823099999999999           
         H16       1.0000    0.10080   0.86400   0.52040   Biso      1.000     H          0.11818499999999998           
         H17       1.0000    0.13600   0.23680   0.65640   Biso      1.000     H          0.118203  
         H18       1.0000    0.52040   0.10080   0.86400   Biso      1.000     H          0.11818800000000002           
         H19       1.0000    0.47960   0.34360   0.58040   Biso      1.000     H          0.118253  
         H20       1.0000    0.34360   0.58040   0.47960   Biso      1.000     H          0.118256  
         H21       1.0000    0.52040   0.86400   0.10080   Biso      1.000     H          0.11818900000000002           
         H22       1.0000    0.76320   0.89920   0.41960   Biso      1.000     H          0.11823199999999999           
         H23       1.0000    0.47960   0.58040   0.34360   Biso      1.000     H          0.11825699999999999           
         H24       1.0000    0.86400   0.52040   0.10080   Biso      1.000     H          0.11818900000000002           
         N1        1.0000    0.37814   0.72755   0.28577   Biso      1.000     N          -0.282763           
         N2        1.0000    0.72755   0.28577   0.37814   Biso      1.000     N          -0.282763           
         N3        1.0000    0.62186   0.34941   0.90763   Biso      1.000     N          -0.28270700000000004          
         N4        1.0000    0.28577   0.37814   0.72755   Biso      1.000     N          -0.282769           
         N5        1.0000    0.62186   0.90763   0.34941   Biso      1.000     N          -0.282708           
         N6        1.0000    0.34941   0.90763   0.62186   Biso      1.000     N          -0.28270700000000004          
         N7        1.0000    0.65059   0.55822   0.27245   Biso      1.000     N          -0.282721           
         N8        1.0000    0.27245   0.55822   0.65059   Biso      1.000     N          -0.28271999999999997          
         N9        1.0000    0.71423   0.44178   0.09237   Biso      1.000     N          -0.282736           
         N10       1.0000    0.72755   0.37814   0.28577   Biso      1.000     N          -0.282769           
         N11       1.0000    0.90763   0.34941   0.62186   Biso      1.000     N          -0.28270700000000004          
         N12       1.0000    0.09237   0.44178   0.71423   Biso      1.000     N          -0.282736           
         N13       1.0000    0.90763   0.62186   0.34941   Biso      1.000     N          -0.28270300000000004          
         N14       1.0000    0.09237   0.71423   0.44178   Biso      1.000     N          -0.282742           
         N15       1.0000    0.71423   0.09237   0.44178   Biso      1.000     N          -0.282736           
         N16       1.0000    0.55822   0.27245   0.65059   Biso      1.000     N          -0.282721           
         N17       1.0000    0.55822   0.65059   0.27245   Biso      1.000     N          -0.28271599999999997          
         N18       1.0000    0.65059   0.27245   0.55822   Biso      1.000     N          -0.28271599999999997          
         N19       1.0000    0.44178   0.71423   0.09237   Biso      1.000     N          -0.282736           
         N20       1.0000    0.44178   0.09237   0.71423   Biso      1.000     N          -0.282736           
         N21       1.0000    0.34941   0.62186   0.90763   Biso      1.000     N          -0.28270700000000004          
         N22       1.0000    0.27245   0.65059   0.55822   Biso      1.000     N          -0.282715           
         N23       1.0000    0.28577   0.72755   0.37814   Biso      1.000     N          -0.28276799999999996          
         N24       1.0000    0.37814   0.28577   0.72755   Biso      1.000     N          -0.282765           
         Zn1       1.0000    0.75000   0.50000   0.25000   Biso      1.000     Zn          0.633223  
         Zn2       1.0000    0.25000   0.75000   0.50000   Biso      1.000     Zn          0.633223  
         Zn3       1.0000    0.50000   0.25000   0.75000   Biso      1.000     Zn          0.633223  
         Zn4       1.0000    0.75000   0.25000   0.50000   Biso      1.000     Zn          0.633223  
         Zn5       1.0000    0.50000   0.75000   0.25000   Biso      1.000     Zn          0.6332220000000001  
         Zn6       1.0000    0.25000   0.50000   0.75000   Biso      1.000     Zn          0.6332220000000001 