
##########################################################################
#               Crystallographic Information Format file
#               Produced by PyCifRW module
#
#  This is a CIF file.  CIF has been adopted by the International
#  Union of Crystallography as the standard for data archiving and
#  transmission.
#
#  For information on this file format, follow the CIF links at
#  http://www.iucr.org
##########################################################################

data_image0

_cell_length_a                          10.3175
_cell_length_b                          10.3175
_cell_length_c                          14.29
_cell_angle_alpha                       90
_cell_angle_beta                        90
_cell_angle_gamma                       90
_symmetry_space_group_name_H-M          'P 1'
_symmetry_int_tables_number             1
loop_
  _symmetry_equiv_pos_as_xyz
         'x, y, z' 
loop_
  _atom_site_label
  _atom_site_occupancy
  _atom_site_fract_x
  _atom_site_fract_y
  _atom_site_fract_z
  _atom_site_thermal_displace_type
  _atom_site_B_iso_or_equiv
  _atom_site_type_symbol
  _atom_site_charge
         C1        1.0000    0.59860   0.03540   0.32900   Biso      1.000     C          -0.112456           
         C2        1.0000    0.03640   0.73410   0.42220   Biso      1.000     C          -0.0194   
         C3        1.0000    0.07560   0.80480   0.33470   Biso      1.000     C          0.6258050000000001  
         C4        1.0000    0.59860   0.96460   0.17100   Biso      1.000     C          -0.112451           
         C5        1.0000    0.73410   0.96360   0.17220   Biso      1.000     C          -0.019396           
         C6        1.0000    0.80480   0.92440   0.08470   Biso      1.000     C          0.625801  
         C7        1.0000    0.40140   0.03540   0.67100   Biso      1.000     C          -0.112451           
         C8        1.0000    0.03540   0.59860   0.42100   Biso      1.000     C          -0.112453           
         C9        1.0000    0.26590   0.03640   0.67220   Biso      1.000     C          -0.019396           
         C10       1.0000    0.03540   0.40140   0.07900   Biso      1.000     C          -0.112451           
         C11       1.0000    0.03640   0.26590   0.07780   Biso      1.000     C          -0.019400999999999998         
         C12       1.0000    0.07560   0.19520   0.16530   Biso      1.000     C          0.6258020000000001  
         C13       1.0000    0.96460   0.59860   0.57900   Biso      1.000     C          -0.112453           
         C14       1.0000    0.96360   0.73410   0.57780   Biso      1.000     C          -0.019400999999999998         
         C15       1.0000    0.92440   0.80480   0.66530   Biso      1.000     C          0.625804  
         C16       1.0000    0.19520   0.07560   0.58470   Biso      1.000     C          0.6258020000000001  
         C17       1.0000    0.92440   0.19520   0.83470   Biso      1.000     C          0.625803  
         C18       1.0000    0.96360   0.26590   0.92220   Biso      1.000     C          -0.0194   
         C19       1.0000    0.96460   0.40140   0.92100   Biso      1.000     C          -0.112452           
         C20       1.0000    0.20730   0.00000   0.75000   Biso      1.000     C          -0.120099           
         C21       1.0000    0.46460   0.00000   0.75000   Biso      1.000     C          -0.009340000000000001         
         C22       1.0000    0.61940   0.00000   0.75000   Biso      1.000     C          0.639165  
         C23       1.0000    0.79270   0.00000   0.25000   Biso      1.000     C          -0.120099           
         C24       1.0000    0.53540   0.00000   0.25000   Biso      1.000     C          -0.009328           
         C25       1.0000    0.38060   0.00000   0.25000   Biso      1.000     C          0.639163  
         C26       1.0000    0.00000   0.79270   0.50000   Biso      1.000     C          -0.12005899999999999          
         C27       1.0000    0.00000   0.53540   0.50000   Biso      1.000     C          -0.009327           
         C28       1.0000    0.00000   0.38060   0.50000   Biso      1.000     C          0.639163  
         C29       1.0000    0.00000   0.20730   0.00000   Biso      1.000     C          -0.12005899999999999          
         C30       1.0000    0.00000   0.46460   0.00000   Biso      1.000     C          -0.009329           
         C31       1.0000    0.00000   0.61940   0.00000   Biso      1.000     C          0.639162  
         C32       1.0000    0.80480   0.07560   0.41530   Biso      1.000     C          0.625799  
         C33       1.0000    0.73410   0.03640   0.32780   Biso      1.000     C          -0.019362           
         C34       1.0000    0.19520   0.92440   0.91530   Biso      1.000     C          0.625796  
         C35       1.0000    0.40140   0.96460   0.82900   Biso      1.000     C          -0.11244100000000001          
         C36       1.0000    0.26590   0.96360   0.82780   Biso      1.000     C          -0.019363           
         Eu1       1.0000    0.13960   0.86040   0.12500   Biso      1.000     Eu          1.3825479999999999  
         Eu2       1.0000    0.86040   0.86040   0.87500   Biso      1.000     Eu          1.382547  
         Eu3       1.0000    0.86040   0.13960   0.62500   Biso      1.000     Eu          1.3825479999999999  
         Eu4       1.0000    0.13960   0.13960   0.37500   Biso      1.000     Eu          1.3825479999999999  
         H1        1.0000    0.94110   0.44790   0.86610   Biso      1.000     H          0.132403  
         H2        1.0000    0.05890   0.55210   0.36610   Biso      1.000     H          0.132403  
         H3        1.0000    0.44790   0.05890   0.61610   Biso      1.000     H          0.132403  
         H4        1.0000    0.05890   0.44790   0.13390   Biso      1.000     H          0.132403  
         H5        1.0000    0.55210   0.94110   0.11610   Biso      1.000     H          0.132403  
         H6        1.0000    0.44790   0.94110   0.88390   Biso      1.000     H          0.132402  
         H7        1.0000    0.55210   0.05890   0.38390   Biso      1.000     H          0.132403  
         H8        1.0000    0.00000   0.11520   0.00000   Biso      1.000     H          0.107298  
         H9        1.0000    0.00000   0.88480   0.50000   Biso      1.000     H          0.107298  
         H10       1.0000    0.88480   0.00000   0.25000   Biso      1.000     H          0.107301  
         H11       1.0000    0.94110   0.55210   0.63390   Biso      1.000     H          0.132403  
         H12       1.0000    0.11520   0.00000   0.75000   Biso      1.000     H          0.107301  
         O1        1.0000    0.90370   0.91910   0.66310   Biso      1.000     O          -0.54377  
         O2        1.0000    0.09630   0.08090   0.16310   Biso      1.000     O          -0.543769           
         O3        1.0000    0.06510   0.32900   0.43940   Biso      1.000     O          -0.540756           
         O4        1.0000    0.91130   0.74490   0.73950   Biso      1.000     O          -0.54164  
         O5        1.0000    0.74490   0.08870   0.48950   Biso      1.000     O          -0.541639           
         O6        1.0000    0.25510   0.91130   0.98950   Biso      1.000     O          -0.541637           
         O7        1.0000    0.08090   0.90370   0.91310   Biso      1.000     O          -0.5437649999999999           
         O8        1.0000    0.32900   0.93490   0.18940   Biso      1.000     O          -0.540755           
         O9        1.0000    0.08870   0.25510   0.23950   Biso      1.000     O          -0.5416380000000001           
         O10       1.0000    0.67100   0.06510   0.68940   Biso      1.000     O          -0.540756           
         O11       1.0000    0.93490   0.67100   0.93940   Biso      1.000     O          -0.540756           
         O12       1.0000    0.08870   0.74490   0.26050   Biso      1.000     O          -0.541641           
         O13       1.0000    0.25510   0.08870   0.51050   Biso      1.000     O          -0.541641           
         O14       1.0000    0.67100   0.93490   0.81060   Biso      1.000     O          -0.5407569999999999           
         O15       1.0000    0.91910   0.90370   0.08690   Biso      1.000     O          -0.543766           
         O16       1.0000    0.74490   0.91130   0.01050   Biso      1.000     O          -0.541639           
         O17       1.0000    0.32900   0.06510   0.31060   Biso      1.000     O          -0.5407569999999999           
         O18       1.0000    0.09630   0.91910   0.33690   Biso      1.000     O          -0.543772           
         O19       1.0000    0.93490   0.32900   0.56060   Biso      1.000     O          -0.540755           
         O20       1.0000    0.90370   0.08090   0.83690   Biso      1.000     O          -0.543771           
         O21       1.0000    0.91130   0.25510   0.76050   Biso      1.000     O          -0.541639           
         O22       1.0000    0.06510   0.67100   0.06060   Biso      1.000     O          -0.540756           
         O23       1.0000    0.08090   0.09630   0.58690   Biso      1.000     O          -0.543768           
         O24       1.0000    0.91910   0.09630   0.41310   Biso      1.000     O          -0.543769 