
##########################################################################
#               Crystallographic Information Format file
#               Produced by PyCifRW module
#
#  This is a CIF file.  CIF has been adopted by the International
#  Union of Crystallography as the standard for data archiving and
#  transmission.
#
#  For information on this file format, follow the CIF links at
#  http://www.iucr.org
##########################################################################

data_image0

_cell_length_a                          14.7269
_cell_length_b                          14.7269
_cell_length_c                          14.7269
_cell_angle_alpha                       109.471
_cell_angle_beta                        109.471
_cell_angle_gamma                       109.471
_symmetry_space_group_name_H-M          'P 1'
_symmetry_int_tables_number             1
loop_
  _symmetry_equiv_pos_as_xyz
         'x, y, z' 
loop_
  _atom_site_label
  _atom_site_occupancy
  _atom_site_fract_x
  _atom_site_fract_y
  _atom_site_fract_z
  _atom_site_thermal_displace_type
  _atom_site_B_iso_or_equiv
  _atom_site_type_symbol
  _atom_site_charge
         C1        1.0000    0.62764   0.38530   0.00000   Biso      1.000     C          0.385573  
         C2        1.0000    0.58938   0.26737   0.05653   Biso      1.000     C          0.037765  
         C3        1.0000    0.81580   0.32380   0.32380   Biso      1.000     C          -0.44435699999999995          
         C4        1.0000    0.75766   0.37236   0.37236   Biso      1.000     C          0.38205100000000003           
         C5        1.0000    0.00000   0.49200   0.67620   Biso      1.000     C          -0.44735  
         C6        1.0000    0.00000   0.38530   0.62764   Biso      1.000     C          0.373881  
         C7        1.0000    0.00000   0.67620   0.49200   Biso      1.000     C          -0.44709899999999997          
         C8        1.0000    0.00000   0.62764   0.38530   Biso      1.000     C          0.377445  
         C9        1.0000    0.18420   0.50800   0.50800   Biso      1.000     C          -0.44772799999999996          
         C10       1.0000    0.49200   0.00000   0.67620   Biso      1.000     C          -0.44716000000000006          
         C11       1.0000    0.38530   0.00000   0.62764   Biso      1.000     C          0.372915  
         C12       1.0000    0.50800   0.18420   0.50800   Biso      1.000     C          -0.44922  
         C13       1.0000    0.61470   0.24234   0.61470   Biso      1.000     C          0.372494  
         C14       1.0000    0.32380   0.81580   0.32380   Biso      1.000     C          -0.449917           
         C15       1.0000    0.37236   0.75766   0.37236   Biso      1.000     C          0.37800900000000004           
         C16       1.0000    0.67620   0.00000   0.49200   Biso      1.000     C          -0.44620600000000005          
         C17       1.0000    0.62764   0.00000   0.38530   Biso      1.000     C          0.374479  
         C18       1.0000    0.49200   0.67620   0.00000   Biso      1.000     C          -0.449039           
         C19       1.0000    0.38530   0.62764   0.00000   Biso      1.000     C          0.372315  
         C20       1.0000    0.32380   0.32380   0.81580   Biso      1.000     C          -0.446715           
         C21       1.0000    0.37236   0.37236   0.75766   Biso      1.000     C          0.375576  
         C22       1.0000    0.50800   0.50800   0.18420   Biso      1.000     C          -0.44700500000000004          
         C23       1.0000    0.61470   0.61470   0.24234   Biso      1.000     C          0.371949  
         C24       1.0000    0.67620   0.49200   0.00000   Biso      1.000     C          -0.45012399999999997          
         C25       1.0000    0.41062   0.46715   0.67799   Biso      1.000     C          -0.074107           
         C26       1.0000    0.78916   0.73263   0.32201   Biso      1.000     C          -0.073268           
         C27       1.0000    0.24234   0.61470   0.61470   Biso      1.000     C          0.368637  
         C28       1.0000    0.32201   0.78916   0.73263   Biso      1.000     C          -0.073779           
         C29       1.0000    0.21084   0.53285   0.94347   Biso      1.000     C          -0.076988           
         C30       1.0000    0.67799   0.46715   0.41062   Biso      1.000     C          -0.074882           
         C31       1.0000    0.05653   0.26737   0.58938   Biso      1.000     C          -0.074423           
         C32       1.0000    0.94347   0.53285   0.21084   Biso      1.000     C          -0.07727200000000001          
         C33       1.0000    0.32201   0.73263   0.78916   Biso      1.000     C          -0.075015           
         C34       1.0000    0.78916   0.32201   0.73263   Biso      1.000     C          -0.073539           
         C35       1.0000    0.41062   0.67799   0.46715   Biso      1.000     C          -0.073571           
         C36       1.0000    0.58938   0.05653   0.26737   Biso      1.000     C          -0.074113           
         C37       1.0000    0.26737   0.58938   0.05653   Biso      1.000     C          -0.071467           
         C38       1.0000    0.46715   0.41062   0.67799   Biso      1.000     C          -0.07605  
         C39       1.0000    0.21084   0.94347   0.53285   Biso      1.000     C          -0.07588400000000001          
         C40       1.0000    0.73263   0.78916   0.32201   Biso      1.000     C          -0.074946           
         C41       1.0000    0.53285   0.21084   0.94347   Biso      1.000     C          -0.124911           
         C42       1.0000    0.26737   0.05653   0.58938   Biso      1.000     C          -0.07395499999999999          
         C43       1.0000    0.46715   0.67799   0.41062   Biso      1.000     C          -0.078188           
         C44       1.0000    0.73263   0.32201   0.78916   Biso      1.000     C          -0.073773           
         C45       1.0000    0.53285   0.94347   0.21084   Biso      1.000     C          -0.076211           
         C46       1.0000    0.67799   0.41062   0.46715   Biso      1.000     C          -0.07584500000000001          
         C47       1.0000    0.05653   0.58938   0.26737   Biso      1.000     C          -0.072796           
         C48       1.0000    0.94347   0.21084   0.53285   Biso      1.000     C          -0.07632  
         H1        1.0000    0.47706   0.11662   0.89607   Biso      1.000     H          0.10228999999999999           
         H2        1.0000    0.77945   0.88338   0.36044   Biso      1.000     H          0.0938    
         H3        1.0000    0.52294   0.41901   0.63956   Biso      1.000     H          0.094802  
         H4        1.0000    0.22055   0.58099   0.10393   Biso      1.000     H          0.092922  
         H5        1.0000    0.58099   0.10393   0.22055   Biso      1.000     H          0.09640900000000001           
         H6        1.0000    0.36044   0.77945   0.88338   Biso      1.000     H          0.094112  
         H7        1.0000    0.88338   0.36044   0.77945   Biso      1.000     H          0.093625  
         H8        1.0000    0.11662   0.89607   0.47706   Biso      1.000     H          0.09231900000000001           
         H9        1.0000    0.10393   0.22055   0.58099   Biso      1.000     H          0.09250900000000001           
         H10       1.0000    0.89607   0.47706   0.11662   Biso      1.000     H          0.09074700000000001           
         H11       1.0000    0.22055   0.10393   0.58099   Biso      1.000     H          0.09375800000000001           
         H12       1.0000    0.41901   0.63956   0.52294   Biso      1.000     H          0.09344   
         H13       1.0000    0.52294   0.63956   0.41901   Biso      1.000     H          0.092249  
         H14       1.0000    0.90933   0.37672   0.38388   Biso      1.000     H          0.133553  
         H15       1.0000    0.47706   0.89607   0.11662   Biso      1.000     H          0.094703  
         H16       1.0000    0.63956   0.41901   0.52294   Biso      1.000     H          0.092167  
         H17       1.0000    0.10393   0.58099   0.22055   Biso      1.000     H          0.090998  
         H18       1.0000    0.89607   0.11662   0.47706   Biso      1.000     H          0.093149  
         H19       1.0000    0.36044   0.88338   0.77945   Biso      1.000     H          0.09549099999999999           
         H20       1.0000    0.11662   0.47706   0.89607   Biso      1.000     H          0.091669  
         H21       1.0000    0.88338   0.77945   0.36044   Biso      1.000     H          0.094215  
         H22       1.0000    0.91357   0.47340   0.66294   Biso      1.000     H          0.136097  
         H23       1.0000    0.78575   0.23544   0.30902   Biso      1.000     H          0.134884  
         H24       1.0000    0.79670   0.32218   0.24144   Biso      1.000     H          0.131497  
         H25       1.0000    0.41901   0.52294   0.63956   Biso      1.000     H          0.093843  
         H26       1.0000    0.63956   0.52294   0.41901   Biso      1.000     H          0.093626  
         H27       1.0000    0.77945   0.36044   0.88338   Biso      1.000     H          0.092529  
         H28       1.0000    0.91106   0.65095   0.47369   Biso      1.000     H          0.136576  
         H29       1.0000    0.65101   0.55004   0.04462   Biso      1.000     H          0.138961  
         H30       1.0000    0.03677   0.64398   0.54657   Biso      1.000     H          0.135634  
         H31       1.0000    0.64393   0.47444   0.91062   Biso      1.000     H          0.138606  
         H32       1.0000    0.45495   0.52029   0.22331   Biso      1.000     H          0.13304000000000002           
         H33       1.0000    0.46112   0.48127   0.09245   Biso      1.000     H          0.13383299999999998           
         H34       1.0000    0.52650   0.44100   0.19247   Biso      1.000     H          0.135122  
         H35       1.0000    0.38025   0.38079   0.90958   Biso      1.000     H          0.135174  
         H36       1.0000    0.02349   0.54046   0.63365   Biso      1.000     H          0.13501400000000002           
         H37       1.0000    0.23798   0.31512   0.79069   Biso      1.000     H          0.134626  
         H38       1.0000    0.31611   0.23843   0.79151   Biso      1.000     H          0.134743  
         H39       1.0000    0.55627   0.75691   0.08210   Biso      1.000     H          0.135105  
         H40       1.0000    0.52376   0.61472   0.98955   Biso      1.000     H          0.136388  
         H41       1.0000    0.47739   0.69403   0.92835   Biso      1.000     H          0.13350599999999999           
         H42       1.0000    0.61975   0.00054   0.52933   Biso      1.000     H          0.134384  
         H43       1.0000    0.68389   0.92232   0.47540   Biso      1.000     H          0.13410999999999998           
         H44       1.0000    0.76202   0.07714   0.55270   Biso      1.000     H          0.133498  
         H45       1.0000    0.34899   0.89904   0.39361   Biso      1.000     H          0.13733199999999998           
         H46       1.0000    0.35607   0.83051   0.26669   Biso      1.000     H          0.13708900000000002           
         H47       1.0000    0.22928   0.76222   0.27404   Biso      1.000     H          0.127908  
         H48       1.0000    0.44372   0.20063   0.52583   Biso      1.000     H          0.134107  
         H49       1.0000    0.52261   0.21664   0.45096   Biso      1.000     H          0.134507  
         H50       1.0000    0.47624   0.09096   0.46578   Biso      1.000     H          0.137599  
         H51       1.0000    0.77072   0.53294   0.04477   Biso      1.000     H          0.129722  
         H52       1.0000    0.54504   0.06534   0.76836   Biso      1.000     H          0.133276  
         H53       1.0000    0.47350   0.91451   0.66597   Biso      1.000     H          0.13601300000000002           
         H54       1.0000    0.53888   0.02015   0.63133   Biso      1.000     H          0.134466  
         H55       1.0000    0.09067   0.46740   0.47455   Biso      1.000     H          0.133172  
         H56       1.0000    0.20330   0.52548   0.44474   Biso      1.000     H          0.135037  
         H57       1.0000    0.21425   0.44969   0.52328   Biso      1.000     H          0.134129  
         H58       1.0000    0.05217   0.77073   0.53717   Biso      1.000     H          0.129114  
         H59       1.0000    0.06294   0.54357   0.76907   Biso      1.000     H          0.131545  
         N1        1.0000    0.62184   0.27146   0.71442   Biso      1.000     N          -0.344762           
         N2        1.0000    0.35038   0.44296   0.72854   Biso      1.000     N          -0.341953           
         N3        1.0000    0.72854   0.44296   0.35038   Biso      1.000     N          -0.349007           
         N4        1.0000    0.09258   0.37816   0.64962   Biso      1.000     N          -0.34472600000000003          
         N5        1.0000    0.90742   0.55704   0.28558   Biso      1.000     N          -0.341531           
         N6        1.0000    0.27146   0.62184   0.71442   Biso      1.000     N          -0.34423200000000004          
         N7        1.0000    0.28558   0.90742   0.55704   Biso      1.000     N          -0.34223400000000004          
         N8        1.0000    0.71442   0.27146   0.62184   Biso      1.000     N          -0.343839           
         N9        1.0000    0.35038   0.72854   0.44296   Biso      1.000     N          -0.346488           
         N10       1.0000    0.64962   0.37816   0.09258   Biso      1.000     N          -0.38310900000000003          
         N11       1.0000    0.37816   0.64962   0.09258   Biso      1.000     N          -0.34258  
         N12       1.0000    0.44296   0.35038   0.72854   Biso      1.000     N          -0.347929           
         N13       1.0000    0.64962   0.09258   0.37816   Biso      1.000     N          -0.342348           
         N14       1.0000    0.55704   0.28558   0.90742   Biso      1.000     N          -0.323274           
         N15       1.0000    0.71442   0.62184   0.27146   Biso      1.000     N          -0.345405           
         N16       1.0000    0.62184   0.71442   0.27146   Biso      1.000     N          -0.34382399999999996          
         N17       1.0000    0.27146   0.71442   0.62184   Biso      1.000     N          -0.34582399999999996          
         N18       1.0000    0.90742   0.28558   0.55704   Biso      1.000     N          -0.342969           
         N19       1.0000    0.28558   0.55704   0.90742   Biso      1.000     N          -0.343985           
         N20       1.0000    0.72854   0.35038   0.44296   Biso      1.000     N          -0.34278600000000004          
         N21       1.0000    0.55704   0.90742   0.28558   Biso      1.000     N          -0.347679           
         N22       1.0000    0.44296   0.72854   0.35038   Biso      1.000     N          -0.341504           
         N23       1.0000    0.37816   0.09258   0.64962   Biso      1.000     N          -0.34537199999999996          
         N24       1.0000    0.09258   0.64962   0.37816   Biso      1.000     N          -0.342066           
         Zn1       1.0000    0.50000   0.25000   0.75000   Biso      1.000     Zn          0.6476810000000001  
         Zn2       1.0000    0.50000   0.75000   0.25000   Biso      1.000     Zn          0.642529  
         Zn3       1.0000    0.75000   0.25000   0.50000   Biso      1.000     Zn          0.64336   
         Zn4       1.0000    0.25000   0.75000   0.50000   Biso      1.000     Zn          0.6491020000000001  
         Zn5       1.0000    0.25000   0.50000   0.75000   Biso      1.000     Zn          0.647979  
         Zn6       1.0000    0.75000   0.50000   0.25000   Biso      1.000     Zn          0.6541710000000001 