
##########################################################################
#               Crystallographic Information Format file
#               Produced by PyCifRW module
#
#  This is a CIF file.  CIF has been adopted by the International
#  Union of Crystallography as the standard for data archiving and
#  transmission.
#
#  For information on this file format, follow the CIF links at
#  http://www.iucr.org
##########################################################################

data_image0

_cell_length_a                          14.7138
_cell_length_b                          14.7138
_cell_length_c                          14.7138
_cell_angle_alpha                       109.471
_cell_angle_beta                        109.471
_cell_angle_gamma                       109.471
_symmetry_space_group_name_H-M          'P 1'
_symmetry_int_tables_number             1
loop_
  _symmetry_equiv_pos_as_xyz
         'x, y, z' 
loop_
  _atom_site_label
  _atom_site_occupancy
  _atom_site_fract_x
  _atom_site_fract_y
  _atom_site_fract_z
  _atom_site_thermal_displace_type
  _atom_site_B_iso_or_equiv
  _atom_site_type_symbol
  _atom_site_charge
         C1        1.0000    0.78924   0.31644   0.73100   Biso      1.000     C          -0.077414           
         C2        1.0000    0.47280   0.68356   0.41456   Biso      1.000     C          -0.077421           
         C3        1.0000    0.73100   0.31644   0.78924   Biso      1.000     C          -0.077414           
         C4        1.0000    0.58544   0.26900   0.05824   Biso      1.000     C          -0.077434           
         C5        1.0000    0.78924   0.73100   0.31644   Biso      1.000     C          -0.077414           
         C6        1.0000    0.21076   0.52720   0.94176   Biso      1.000     C          -0.077444           
         C7        1.0000    0.41456   0.47280   0.68356   Biso      1.000     C          -0.077421           
         C8        1.0000    0.31644   0.78924   0.73100   Biso      1.000     C          -0.077414           
         C9        1.0000    0.05824   0.58544   0.26900   Biso      1.000     C          -0.077434           
         C10       1.0000    0.68356   0.41456   0.47280   Biso      1.000     C          -0.077421           
         C11       1.0000    0.94176   0.21076   0.52720   Biso      1.000     C          -0.077444           
         C12       1.0000    0.31644   0.73100   0.78924   Biso      1.000     C          -0.077414           
         C13       1.0000    0.05824   0.26900   0.58544   Biso      1.000     C          -0.077434           
         C14       1.0000    0.68356   0.47280   0.41456   Biso      1.000     C          -0.077421           
         C15       1.0000    0.94176   0.52720   0.21076   Biso      1.000     C          -0.077444           
         C16       1.0000    0.52720   0.21076   0.94176   Biso      1.000     C          -0.077444           
         C17       1.0000    0.47280   0.41456   0.68356   Biso      1.000     C          -0.077421           
         C18       1.0000    0.26900   0.58544   0.05824   Biso      1.000     C          -0.077434           
         C19       1.0000    0.73100   0.78924   0.31644   Biso      1.000     C          -0.077414           
         C20       1.0000    0.58544   0.05824   0.26900   Biso      1.000     C          -0.077434           
         C21       1.0000    0.21076   0.94176   0.52720   Biso      1.000     C          -0.077444           
         C22       1.0000    0.41456   0.68356   0.47280   Biso      1.000     C          -0.077421           
         C23       1.0000    0.52720   0.94176   0.21076   Biso      1.000     C          -0.077444           
         C24       1.0000    0.37300   0.75680   0.37300   Biso      1.000     C          0.39441   
         C25       1.0000    0.26900   0.05824   0.58544   Biso      1.000     C          -0.077434           
         C26       1.0000    0.38380   0.00000   0.62700   Biso      1.000     C          0.394447  
         C27       1.0000    0.19420   0.51370   0.51370   Biso      1.000     C          -0.567788           
         C28       1.0000    0.24320   0.61620   0.61620   Biso      1.000     C          0.394521  
         C29       1.0000    1.00000   0.48630   0.68050   Biso      1.000     C          -0.567753           
         C30       1.0000    0.00000   0.38380   0.62700   Biso      1.000     C          0.394447  
         C31       1.0000    0.80580   0.31950   0.31950   Biso      1.000     C          -0.5677939999999999           
         C32       1.0000    0.75680   0.37300   0.37300   Biso      1.000     C          0.394412  
         C33       1.0000    0.00000   0.68050   0.48630   Biso      1.000     C          -0.567753           
         C34       1.0000    0.31950   0.80580   0.31950   Biso      1.000     C          -0.5677909999999999           
         C35       1.0000    0.68050   0.48630   0.00000   Biso      1.000     C          -0.567752           
         C36       1.0000    0.62700   0.38380   0.00000   Biso      1.000     C          0.394447  
         C37       1.0000    0.31950   0.31950   0.80580   Biso      1.000     C          -0.5677909999999999           
         C38       1.0000    0.00000   0.62700   0.38380   Biso      1.000     C          0.394447  
         C39       1.0000    0.48630   0.68050   0.00000   Biso      1.000     C          -0.567753           
         C40       1.0000    0.38380   0.62700   0.00000   Biso      1.000     C          0.394447  
         C41       1.0000    0.51370   0.51370   0.19420   Biso      1.000     C          -0.567787           
         C42       1.0000    0.61620   0.61620   0.24320   Biso      1.000     C          0.394521  
         C43       1.0000    0.68050   0.00000   0.48630   Biso      1.000     C          -0.567753           
         C44       1.0000    0.62700   0.00000   0.38380   Biso      1.000     C          0.394447  
         C45       1.0000    0.51370   0.19420   0.51370   Biso      1.000     C          -0.567787           
         C46       1.0000    0.61620   0.24320   0.61620   Biso      1.000     C          0.394521  
         C47       1.0000    0.37300   0.37300   0.75680   Biso      1.000     C          0.39441   
         C48       1.0000    0.48630   0.00000   0.68050   Biso      1.000     C          -0.567753           
         H1        1.0000    0.51170   0.62990   0.00000   Biso      1.000     H          0.168669  
         H2        1.0000    0.62990   0.51170   0.00000   Biso      1.000     H          0.168669  
         H3        1.0000    0.00000   0.62990   0.51170   Biso      1.000     H          0.168669  
         H4        1.0000    0.48830   0.48830   0.11820   Biso      1.000     H          0.168679  
         H5        1.0000    0.00000   0.51170   0.62990   Biso      1.000     H          0.168669  
         H6        1.0000    0.11820   0.48830   0.48830   Biso      1.000     H          0.168679  
         H7        1.0000    0.88180   0.37010   0.37010   Biso      1.000     H          0.168686  
         H8        1.0000    0.62990   0.00000   0.51170   Biso      1.000     H          0.168669  
         H9        1.0000    0.37010   0.37010   0.88180   Biso      1.000     H          0.168685  
         H10       1.0000    0.51170   0.00000   0.62990   Biso      1.000     H          0.168669  
         H11       1.0000    0.34360   0.76600   0.88020   Biso      1.000     H          0.09197999999999999           
         H12       1.0000    0.93390   0.48370   0.68960   Biso      1.000     H          0.170047  
         H13       1.0000    0.11420   0.23400   0.57760   Biso      1.000     H          0.091999  
         H14       1.0000    0.48830   0.11820   0.48830   Biso      1.000     H          0.168679  
         H15       1.0000    0.65640   0.53660   0.42240   Biso      1.000     H          0.09201000000000001           
         H16       1.0000    0.06610   0.75570   0.54980   Biso      1.000     H          0.170044  
         H17       1.0000    0.88580   0.46340   0.11980   Biso      1.000     H          0.091999  
         H18       1.0000    0.75570   0.54980   0.06610   Biso      1.000     H          0.170044  
         H19       1.0000    0.46340   0.11980   0.88580   Biso      1.000     H          0.091999  
         H20       1.0000    0.24430   0.31040   0.79410   Biso      1.000     H          0.170062  
         H21       1.0000    0.53660   0.42240   0.65640   Biso      1.000     H          0.09201000000000001           
         H22       1.0000    0.48370   0.68960   0.93390   Biso      1.000     H          0.170047  
         H23       1.0000    0.23400   0.57760   0.11420   Biso      1.000     H          0.091999  
         H24       1.0000    0.51630   0.45020   0.20590   Biso      1.000     H          0.170062  
         H25       1.0000    0.76600   0.88020   0.34360   Biso      1.000     H          0.09197999999999999           
         H26       1.0000    0.68960   0.93390   0.48370   Biso      1.000     H          0.170047  
         H27       1.0000    0.57760   0.11420   0.23400   Biso      1.000     H          0.091999  
         H28       1.0000    0.45020   0.20590   0.51630   Biso      1.000     H          0.170062  
         H29       1.0000    0.88020   0.34360   0.76600   Biso      1.000     H          0.09197999999999999           
         H30       1.0000    0.54980   0.06610   0.75570   Biso      1.000     H          0.170044  
         H31       1.0000    0.11980   0.88580   0.46340   Biso      1.000     H          0.091999  
         H32       1.0000    0.31040   0.79410   0.24430   Biso      1.000     H          0.170062  
         H33       1.0000    0.42240   0.65640   0.53660   Biso      1.000     H          0.09201000000000001           
         H34       1.0000    0.20590   0.51630   0.45020   Biso      1.000     H          0.170062  
         H35       1.0000    0.88580   0.11980   0.46340   Biso      1.000     H          0.091999  
         H36       1.0000    0.79410   0.24430   0.31040   Biso      1.000     H          0.170062  
         H37       1.0000    0.65640   0.42240   0.53660   Biso      1.000     H          0.09201000000000001           
         H38       1.0000    0.37010   0.88180   0.37010   Biso      1.000     H          0.168685  
         H39       1.0000    0.75570   0.06610   0.54980   Biso      1.000     H          0.170043  
         H40       1.0000    0.46340   0.88580   0.11980   Biso      1.000     H          0.091999  
         H41       1.0000    0.24430   0.79410   0.31040   Biso      1.000     H          0.170062  
         H42       1.0000    0.53660   0.65640   0.42240   Biso      1.000     H          0.09201000000000001           
         H43       1.0000    0.06610   0.54980   0.75570   Biso      1.000     H          0.170043  
         H44       1.0000    0.23400   0.11420   0.57760   Biso      1.000     H          0.091999  
         H45       1.0000    0.51630   0.20590   0.45020   Biso      1.000     H          0.170062  
         H46       1.0000    0.76600   0.34360   0.88020   Biso      1.000     H          0.09197999999999999           
         H47       1.0000    0.68960   0.48370   0.93390   Biso      1.000     H          0.170046  
         H48       1.0000    0.57760   0.23400   0.11420   Biso      1.000     H          0.091999  
         H49       1.0000    0.48370   0.93390   0.68960   Biso      1.000     H          0.170046  
         H50       1.0000    0.88020   0.76600   0.34360   Biso      1.000     H          0.09197999999999999           
         H51       1.0000    0.45020   0.51630   0.20590   Biso      1.000     H          0.170062  
         H52       1.0000    0.79410   0.31040   0.24430   Biso      1.000     H          0.170062  
         H53       1.0000    0.11420   0.57760   0.23400   Biso      1.000     H          0.091999  
         H54       1.0000    0.34360   0.88020   0.76600   Biso      1.000     H          0.09197999999999999           
         H55       1.0000    0.20590   0.45020   0.51630   Biso      1.000     H          0.170062  
         H56       1.0000    0.93390   0.68960   0.48370   Biso      1.000     H          0.170046  
         H57       1.0000    0.31040   0.24430   0.79410   Biso      1.000     H          0.170062  
         H58       1.0000    0.11980   0.46340   0.88580   Biso      1.000     H          0.091999  
         H59       1.0000    0.54980   0.75570   0.06610   Biso      1.000     H          0.170043  
         H60       1.0000    0.42240   0.53660   0.65640   Biso      1.000     H          0.09201000000000001           
         N1        1.0000    0.09388   0.64855   0.37653   Biso      1.000     N          -0.3486   
         N2        1.0000    0.27202   0.62347   0.71735   Biso      1.000     N          -0.348625           
         N3        1.0000    0.09388   0.37653   0.64855   Biso      1.000     N          -0.3486   
         N4        1.0000    0.90612   0.28265   0.55467   Biso      1.000     N          -0.348561           
         N5        1.0000    0.72798   0.35145   0.44533   Biso      1.000     N          -0.348569           
         N6        1.0000    0.27202   0.71735   0.62347   Biso      1.000     N          -0.348625           
         N7        1.0000    0.28265   0.55467   0.90612   Biso      1.000     N          -0.348561           
         N8        1.0000    0.62347   0.27202   0.71735   Biso      1.000     N          -0.348625           
         N9        1.0000    0.64855   0.37653   0.09388   Biso      1.000     N          -0.3486   
         N10       1.0000    0.71735   0.62347   0.27202   Biso      1.000     N          -0.348625           
         N11       1.0000    0.72798   0.44533   0.35145   Biso      1.000     N          -0.348569           
         N12       1.0000    0.35145   0.44533   0.72798   Biso      1.000     N          -0.348569           
         N13       1.0000    0.37653   0.09388   0.64855   Biso      1.000     N          -0.3486   
         N14       1.0000    0.90612   0.55467   0.28265   Biso      1.000     N          -0.348561           
         N15       1.0000    0.55467   0.90612   0.28265   Biso      1.000     N          -0.34856  
         N16       1.0000    0.44533   0.35145   0.72798   Biso      1.000     N          -0.348569           
         N17       1.0000    0.37653   0.64855   0.09388   Biso      1.000     N          -0.3486   
         N18       1.0000    0.62347   0.71735   0.27202   Biso      1.000     N          -0.348625           
         N19       1.0000    0.64855   0.09388   0.37653   Biso      1.000     N          -0.348599           
         N20       1.0000    0.71735   0.27202   0.62347   Biso      1.000     N          -0.348625           
         N21       1.0000    0.28265   0.90612   0.55467   Biso      1.000     N          -0.348561           
         N22       1.0000    0.35145   0.72798   0.44533   Biso      1.000     N          -0.348569           
         N23       1.0000    0.44533   0.72798   0.35145   Biso      1.000     N          -0.348569           
         N24       1.0000    0.55467   0.28265   0.90612   Biso      1.000     N          -0.348561           
         Zn1       1.0000    0.25000   0.50000   0.75000   Biso      1.000     Zn          0.665145  
         Zn2       1.0000    0.75000   0.50000   0.25000   Biso      1.000     Zn          0.665145  
         Zn3       1.0000    0.50000   0.25000   0.75000   Biso      1.000     Zn          0.665145  
         Zn4       1.0000    0.50000   0.75000   0.25000   Biso      1.000     Zn          0.665144  
         Zn5       1.0000    0.75000   0.25000   0.50000   Biso      1.000     Zn          0.665145  
         Zn6       1.0000    0.25000   0.75000   0.50000   Biso      1.000     Zn          0.665145 