
##########################################################################
#               Crystallographic Information Format file
#               Produced by PyCifRW module
#
#  This is a CIF file.  CIF has been adopted by the International
#  Union of Crystallography as the standard for data archiving and
#  transmission.
#
#  For information on this file format, follow the CIF links at
#  http://www.iucr.org
##########################################################################

data_image0

_cell_length_a                          13.343
_cell_length_b                          13.343
_cell_length_c                          14.515
_cell_angle_alpha                       90
_cell_angle_beta                        90
_cell_angle_gamma                       120
_symmetry_space_group_name_H-M          'P 1'
_symmetry_int_tables_number             1
loop_
  _symmetry_equiv_pos_as_xyz
         'x, y, z' 
loop_
  _atom_site_label
  _atom_site_occupancy
  _atom_site_fract_x
  _atom_site_fract_y
  _atom_site_fract_z
  _atom_site_thermal_displace_type
  _atom_site_B_iso_or_equiv
  _atom_site_type_symbol
  _atom_site_charge
         C1        1.0000    0.25380   0.35140   0.48940   Biso      1.000     C          -0.226778           
         C2        1.0000    0.55290   0.66730   0.13920   Biso      1.000     C          -0.241466           
         C3        1.0000    0.43800   0.56340   0.15920   Biso      1.000     C          0.685399  
         C4        1.0000    0.54710   0.81720   0.43100   Biso      1.000     C          0.645147  
         C5        1.0000    0.64860   0.90240   0.48940   Biso      1.000     C          -0.22678  
         C6        1.0000    0.55290   0.88560   0.63920   Biso      1.000     C          -0.241465           
         C7        1.0000    0.43800   0.87460   0.65920   Biso      1.000     C          0.685397  
         C8        1.0000    0.27010   0.45290   0.43100   Biso      1.000     C          0.645121  
         C9        1.0000    0.33270   0.44710   0.63920   Biso      1.000     C          -0.241467           
         C10       1.0000    0.43660   0.56200   0.65920   Biso      1.000     C          0.685392  
         C11       1.0000    0.18280   0.72990   0.43100   Biso      1.000     C          0.645126  
         C12       1.0000    0.09760   0.74620   0.48940   Biso      1.000     C          -0.22678  
         C13       1.0000    0.11440   0.66730   0.63920   Biso      1.000     C          -0.241465           
         C14       1.0000    0.12540   0.56340   0.65920   Biso      1.000     C          0.685399  
         C15       1.0000    0.72990   0.18280   0.06900   Biso      1.000     C          0.645152  
         C16       1.0000    0.74620   0.09760   0.01060   Biso      1.000     C          -0.226782           
         C17       1.0000    0.66730   0.11440   0.86080   Biso      1.000     C          -0.241467           
         C18       1.0000    0.56340   0.12540   0.84080   Biso      1.000     C          0.685402  
         C19       1.0000    0.81720   0.54710   0.06900   Biso      1.000     C          0.645126  
         C20       1.0000    0.90240   0.64860   0.01060   Biso      1.000     C          -0.226781           
         C21       1.0000    0.88560   0.55290   0.86080   Biso      1.000     C          -0.24147  
         C22       1.0000    0.87460   0.43800   0.84080   Biso      1.000     C          0.685396  
         C23       1.0000    0.45290   0.27010   0.06900   Biso      1.000     C          0.645131  
         C24       1.0000    0.35140   0.25380   0.01060   Biso      1.000     C          -0.226781           
         C25       1.0000    0.64860   0.74620   0.98940   Biso      1.000     C          -0.226779           
         C26       1.0000    0.54710   0.72990   0.93100   Biso      1.000     C          0.645127  
         C27       1.0000    0.12540   0.56200   0.15920   Biso      1.000     C          0.685391  
         C28       1.0000    0.11440   0.44710   0.13920   Biso      1.000     C          -0.241467           
         C29       1.0000    0.45290   0.18280   0.56900   Biso      1.000     C          0.645152  
         C30       1.0000    0.35140   0.09760   0.51060   Biso      1.000     C          -0.226783           
         C31       1.0000    0.44710   0.11440   0.36080   Biso      1.000     C          -0.241467           
         C32       1.0000    0.56200   0.12540   0.34080   Biso      1.000     C          0.685401  
         C33       1.0000    0.72990   0.54710   0.56900   Biso      1.000     C          0.645126  
         C34       1.0000    0.44710   0.33270   0.86080   Biso      1.000     C          -0.241468           
         C35       1.0000    0.66730   0.55290   0.36080   Biso      1.000     C          -0.24147  
         C36       1.0000    0.56340   0.43800   0.34080   Biso      1.000     C          0.685396  
         C37       1.0000    0.81720   0.27010   0.56900   Biso      1.000     C          0.645131  
         C38       1.0000    0.74620   0.64860   0.51060   Biso      1.000     C          -0.226781           
         C39       1.0000    0.88560   0.33270   0.36080   Biso      1.000     C          -0.241467           
         C40       1.0000    0.87460   0.43660   0.34080   Biso      1.000     C          0.685404  
         C41       1.0000    0.27010   0.81720   0.93100   Biso      1.000     C          0.645147  
         C42       1.0000    0.25380   0.90240   0.98940   Biso      1.000     C          -0.22678  
         C43       1.0000    0.33270   0.88560   0.13920   Biso      1.000     C          -0.241465           
         C44       1.0000    0.43660   0.87460   0.15920   Biso      1.000     C          0.685397  
         C45       1.0000    0.18280   0.45290   0.93100   Biso      1.000     C          0.645121  
         C46       1.0000    0.09760   0.35140   0.98940   Biso      1.000     C          -0.226778           
         C47       1.0000    0.90240   0.25380   0.51060   Biso      1.000     C          -0.226781           
         C48       1.0000    0.56200   0.43660   0.84080   Biso      1.000     C          0.685404  
         Cu1       1.0000    0.50000   0.00000   0.50000   Biso      1.000     Cu          0.779468  
         Cu2       1.0000    0.50000   0.50000   0.50000   Biso      1.000     Cu          0.779448  
         Cu3       1.0000    0.00000   0.50000   0.50000   Biso      1.000     Cu          0.779453  
         Cu4       1.0000    0.50000   0.00000   0.00000   Biso      1.000     Cu          0.779468  
         Cu5       1.0000    0.00000   0.50000   0.00000   Biso      1.000     Cu          0.779447  
         Cu6       1.0000    0.50000   0.50000   0.00000   Biso      1.000     Cu          0.779452  
         Gd1       1.0000    0.66667   0.33334   0.66800   Biso      1.000     Gd          2.034789  
         Gd2       1.0000    0.33333   0.66666   0.33200   Biso      1.000     Gd          2.034761  
         Gd3       1.0000    0.33333   0.66666   0.83200   Biso      1.000     Gd          2.034761  
         Gd4       1.0000    0.66667   0.33334   0.16800   Biso      1.000     Gd          2.034788  
         H1        1.0000    0.17960   0.31750   0.52060   Biso      1.000     H          0.12673   
         H2        1.0000    0.25390   0.29270   0.45010   Biso      1.000     H          0.14208   
         H3        1.0000    0.31600   0.39740   0.69250   Biso      1.000     H          0.145922  
         H4        1.0000    0.26670   0.45780   0.62910   Biso      1.000     H          0.148151  
         H5        1.0000    0.35010   0.32600   0.57790   Biso      1.000     H          0.257298  
         H6        1.0000    0.13790   0.82040   0.52060   Biso      1.000     H          0.126731  
         H7        1.0000    0.03880   0.74610   0.45010   Biso      1.000     H          0.14208   
         H8        1.0000    0.08140   0.68400   0.69250   Biso      1.000     H          0.145923  
         H9        1.0000    0.19110   0.73330   0.62910   Biso      1.000     H          0.148154  
         H10       1.0000    0.97590   0.64990   0.57790   Biso      1.000     H          0.257296  
         H11       1.0000    0.82040   0.13790   0.97940   Biso      1.000     H          0.126732  
         H12       1.0000    0.74610   0.03880   0.04990   Biso      1.000     H          0.14209   
         H13       1.0000    0.68400   0.08140   0.80750   Biso      1.000     H          0.145932  
         H14       1.0000    0.73330   0.19110   0.87090   Biso      1.000     H          0.148152  
         H15       1.0000    0.64990   0.97590   0.92210   Biso      1.000     H          0.257299  
         H16       1.0000    0.86210   0.68250   0.97940   Biso      1.000     H          0.126736  
         H17       1.0000    0.96120   0.70730   0.04990   Biso      1.000     H          0.142096  
         H18       1.0000    0.91860   0.60260   0.80750   Biso      1.000     H          0.145933  
         H19       1.0000    0.80890   0.54220   0.87090   Biso      1.000     H          0.148153  
         H20       1.0000    0.02410   0.67400   0.92210   Biso      1.000     H          0.2573    
         H21       1.0000    0.31750   0.17960   0.97940   Biso      1.000     H          0.126735  
         H22       1.0000    0.29270   0.25390   0.04990   Biso      1.000     H          0.142092  
         H23       1.0000    0.39740   0.31600   0.80750   Biso      1.000     H          0.145933  
         H24       1.0000    0.45780   0.26670   0.87090   Biso      1.000     H          0.148156  
         H25       1.0000    0.32600   0.35010   0.92210   Biso      1.000     H          0.257299  
         H26       1.0000    0.17960   0.86210   0.02060   Biso      1.000     H          0.126726  
         H27       1.0000    0.67400   0.02410   0.57790   Biso      1.000     H          0.257296  
         H28       1.0000    0.54220   0.80890   0.62910   Biso      1.000     H          0.148149  
         H29       1.0000    0.02410   0.35010   0.42210   Biso      1.000     H          0.257299  
         H30       1.0000    0.70730   0.96120   0.45010   Biso      1.000     H          0.142077  
         H31       1.0000    0.80890   0.26670   0.37090   Biso      1.000     H          0.148156  
         H32       1.0000    0.91860   0.31600   0.30750   Biso      1.000     H          0.145933  
         H33       1.0000    0.96120   0.25390   0.54990   Biso      1.000     H          0.142091  
         H34       1.0000    0.86210   0.17960   0.47940   Biso      1.000     H          0.126735  
         H35       1.0000    0.64990   0.67400   0.42210   Biso      1.000     H          0.257301  
         H36       1.0000    0.73330   0.54220   0.37090   Biso      1.000     H          0.148154  
         H37       1.0000    0.68400   0.60260   0.30750   Biso      1.000     H          0.145934  
         H38       1.0000    0.74610   0.70730   0.54990   Biso      1.000     H          0.142097  
         H39       1.0000    0.82040   0.68250   0.47940   Biso      1.000     H          0.126736  
         H40       1.0000    0.32600   0.97590   0.42210   Biso      1.000     H          0.257299  
         H41       1.0000    0.45780   0.19110   0.37090   Biso      1.000     H          0.148152  
         H42       1.0000    0.39740   0.08140   0.30750   Biso      1.000     H          0.145933  
         H43       1.0000    0.31750   0.13790   0.47940   Biso      1.000     H          0.126732  
         H44       1.0000    0.25390   0.96120   0.95010   Biso      1.000     H          0.142077  
         H45       1.0000    0.29270   0.03880   0.54990   Biso      1.000     H          0.142092  
         H46       1.0000    0.26670   0.80890   0.12910   Biso      1.000     H          0.148149  
         H47       1.0000    0.60260   0.91860   0.69250   Biso      1.000     H          0.145923  
         H48       1.0000    0.68250   0.86210   0.52060   Biso      1.000     H          0.126726  
         H49       1.0000    0.67400   0.64990   0.07790   Biso      1.000     H          0.257296  
         H50       1.0000    0.54220   0.73330   0.12910   Biso      1.000     H          0.148153  
         H51       1.0000    0.31600   0.91860   0.19250   Biso      1.000     H          0.145922  
         H52       1.0000    0.70730   0.74610   0.95010   Biso      1.000     H          0.14208   
         H53       1.0000    0.68250   0.82040   0.02060   Biso      1.000     H          0.12673   
         H54       1.0000    0.60260   0.68400   0.19250   Biso      1.000     H          0.145923  
         H55       1.0000    0.19110   0.45780   0.12910   Biso      1.000     H          0.14815   
         H56       1.0000    0.08140   0.39740   0.19250   Biso      1.000     H          0.145922  
         H57       1.0000    0.03880   0.29270   0.95010   Biso      1.000     H          0.142079  
         H58       1.0000    0.13790   0.31750   0.02060   Biso      1.000     H          0.126729  
         H59       1.0000    0.35010   0.02410   0.07790   Biso      1.000     H          0.257296  
         H60       1.0000    0.97590   0.32600   0.07790   Biso      1.000     H          0.257298  
         N1        1.0000    0.04200   0.38920   0.05820   Biso      1.000     N          -0.283046           
         N2        1.0000    0.38920   0.04200   0.44180   Biso      1.000     N          -0.283042           
         N3        1.0000    0.65280   0.61080   0.44180   Biso      1.000     N          -0.283042           
         N4        1.0000    0.95800   0.34720   0.44180   Biso      1.000     N          -0.283043           
         N5        1.0000    0.34720   0.95800   0.05820   Biso      1.000     N          -0.283046           
         N6        1.0000    0.61080   0.65280   0.05820   Biso      1.000     N          -0.283046           
         N7        1.0000    0.95800   0.61080   0.94180   Biso      1.000     N          -0.283042           
         N8        1.0000    0.34720   0.38920   0.55820   Biso      1.000     N          -0.283046           
         N9        1.0000    0.04200   0.65280   0.55820   Biso      1.000     N          -0.283046           
         N10       1.0000    0.65280   0.04200   0.94180   Biso      1.000     N          -0.283043           
         N11       1.0000    0.38920   0.34720   0.94180   Biso      1.000     N          -0.283043           
         N12       1.0000    0.61080   0.95800   0.55820   Biso      1.000     N          -0.283046           
         O1        1.0000    0.38210   0.56480   0.22830   Biso      1.000     O          -0.663001           
         O2        1.0000    0.45070   0.63790   0.94160   Biso      1.000     O          -0.670079           
         O3        1.0000    0.56090   0.80480   0.87310   Biso      1.000     O          -0.610591           
         O4        1.0000    0.07470   0.59880   0.10760   Biso      1.000     O          -0.523749           
         O5        1.0000    0.18270   0.61790   0.22830   Biso      1.000     O          -0.662992           
         O6        1.0000    0.18720   0.54930   0.94160   Biso      1.000     O          -0.670045           
         O7        1.0000    0.24390   0.43910   0.87310   Biso      1.000     O          -0.610599           
         O8        1.0000    0.52410   0.92530   0.10760   Biso      1.000     O          -0.523756           
         O9        1.0000    0.43520   0.81730   0.22830   Biso      1.000     O          -0.663    
         O10       1.0000    0.36210   0.81280   0.94160   Biso      1.000     O          -0.670125           
         O11       1.0000    0.81730   0.43520   0.27170   Biso      1.000     O          -0.663002           
         O12       1.0000    0.92530   0.52410   0.39240   Biso      1.000     O          -0.523744           
         O13       1.0000    0.81280   0.36210   0.55840   Biso      1.000     O          -0.670079           
         O14       1.0000    0.75610   0.19520   0.62690   Biso      1.000     O          -0.610579           
         O15       1.0000    0.47590   0.40120   0.39240   Biso      1.000     O          -0.523741           
         O16       1.0000    0.56480   0.38210   0.27170   Biso      1.000     O          -0.662992           
         O17       1.0000    0.63790   0.45070   0.55840   Biso      1.000     O          -0.670044           
         O18       1.0000    0.61790   0.18270   0.27170   Biso      1.000     O          -0.663001           
         O19       1.0000    0.80480   0.56090   0.62690   Biso      1.000     O          -0.610587           
         O20       1.0000    0.59880   0.07470   0.39240   Biso      1.000     O          -0.523748           
         O21       1.0000    0.40120   0.47590   0.10760   Biso      1.000     O          -0.523751           
         O22       1.0000    0.19520   0.75610   0.87310   Biso      1.000     O          -0.610608           
         O23       1.0000    0.56090   0.75610   0.37310   Biso      1.000     O          -0.610607           
         O24       1.0000    0.54930   0.36210   0.05840   Biso      1.000     O          -0.670079           
         O25       1.0000    0.38210   0.81730   0.72830   Biso      1.000     O          -0.662999           
         O26       1.0000    0.54930   0.18720   0.55840   Biso      1.000     O          -0.670125           
         O27       1.0000    0.59880   0.52410   0.89240   Biso      1.000     O          -0.523744           
         O28       1.0000    0.61790   0.43520   0.77170   Biso      1.000     O          -0.663003           
         O29       1.0000    0.43910   0.19520   0.12690   Biso      1.000     O          -0.61058  
         O30       1.0000    0.92530   0.40120   0.89240   Biso      1.000     O          -0.523741           
         O31       1.0000    0.81730   0.38210   0.77170   Biso      1.000     O          -0.662994           
         O32       1.0000    0.81280   0.45070   0.05840   Biso      1.000     O          -0.670044           
         O33       1.0000    0.75610   0.56090   0.12690   Biso      1.000     O          -0.610588           
         O34       1.0000    0.47590   0.07470   0.89240   Biso      1.000     O          -0.523749           
         O35       1.0000    0.56480   0.18270   0.77170   Biso      1.000     O          -0.663003           
         O36       1.0000    0.63790   0.18720   0.05840   Biso      1.000     O          -0.670125           
         O37       1.0000    0.80480   0.24390   0.12690   Biso      1.000     O          -0.610597           
         O38       1.0000    0.07470   0.47590   0.60760   Biso      1.000     O          -0.523751           
         O39       1.0000    0.18270   0.56480   0.72830   Biso      1.000     O          -0.663    
         O40       1.0000    0.18720   0.63790   0.44160   Biso      1.000     O          -0.670079           
         O41       1.0000    0.24390   0.80480   0.37310   Biso      1.000     O          -0.61059  
         O42       1.0000    0.52410   0.59880   0.60760   Biso      1.000     O          -0.523749           
         O43       1.0000    0.43520   0.61790   0.72830   Biso      1.000     O          -0.662991           
         O44       1.0000    0.36210   0.54930   0.44160   Biso      1.000     O          -0.670045           
         O45       1.0000    0.19520   0.43910   0.37310   Biso      1.000     O          -0.610598           
         O46       1.0000    0.40120   0.92530   0.60760   Biso      1.000     O          -0.523756           
         O47       1.0000    0.45070   0.81280   0.44160   Biso      1.000     O          -0.670125           
         O48       1.0000    0.43910   0.24390   0.62690   Biso      1.000     O          -0.610596 