
##########################################################################
#               Crystallographic Information Format file
#               Produced by PyCifRW module
#
#  This is a CIF file.  CIF has been adopted by the International
#  Union of Crystallography as the standard for data archiving and
#  transmission.
#
#  For information on this file format, follow the CIF links at
#  http://www.iucr.org
##########################################################################

data_image0

_cell_length_a                          13.414
_cell_length_b                          13.414
_cell_length_c                          14.706
_cell_angle_alpha                       90
_cell_angle_beta                        90
_cell_angle_gamma                       120
_symmetry_space_group_name_H-M          'P 1'
_symmetry_int_tables_number             1
loop_
  _symmetry_equiv_pos_as_xyz
         'x, y, z' 
loop_
  _atom_site_label
  _atom_site_occupancy
  _atom_site_fract_x
  _atom_site_fract_y
  _atom_site_fract_z
  _atom_site_thermal_displace_type
  _atom_site_B_iso_or_equiv
  _atom_site_type_symbol
  _atom_site_charge
         C1        1.0000    0.25510   0.35270   0.49090   Biso      1.000     C          -0.23038000000000003          
         C2        1.0000    0.55250   0.66640   0.13820   Biso      1.000     C          -0.248164           
         C3        1.0000    0.54680   0.81850   0.43130   Biso      1.000     C          0.656878  
         C4        1.0000    0.64730   0.90240   0.49090   Biso      1.000     C          -0.230382           
         C5        1.0000    0.55250   0.88610   0.63820   Biso      1.000     C          -0.248164           
         C6        1.0000    0.43860   0.87560   0.65810   Biso      1.000     C          0.6886939999999999  
         C7        1.0000    0.27170   0.45320   0.43130   Biso      1.000     C          0.6568689999999999  
         C8        1.0000    0.33360   0.44750   0.63820   Biso      1.000     C          -0.24816799999999997          
         C9        1.0000    0.43700   0.56140   0.65810   Biso      1.000     C          0.688696  
         C10       1.0000    0.18150   0.72830   0.43130   Biso      1.000     C          0.656868  
         C11       1.0000    0.09760   0.74490   0.49090   Biso      1.000     C          -0.230383           
         C12       1.0000    0.11390   0.66640   0.63820   Biso      1.000     C          -0.248164           
         C13       1.0000    0.64730   0.74490   0.99090   Biso      1.000     C          -0.230384           
         C14       1.0000    0.12440   0.56300   0.65810   Biso      1.000     C          0.6886979999999999  
         C15       1.0000    0.74490   0.09760   0.00910   Biso      1.000     C          -0.230382           
         C16       1.0000    0.66640   0.11390   0.86180   Biso      1.000     C          -0.248164           
         C17       1.0000    0.56300   0.12440   0.84190   Biso      1.000     C          0.6886939999999999  
         C18       1.0000    0.81850   0.54680   0.06870   Biso      1.000     C          0.65687   
         C19       1.0000    0.90240   0.64730   0.00910   Biso      1.000     C          -0.230379           
         C20       1.0000    0.88610   0.55250   0.86180   Biso      1.000     C          -0.24816799999999997          
         C21       1.0000    0.87560   0.43860   0.84190   Biso      1.000     C          0.688696  
         C22       1.0000    0.45320   0.27170   0.06870   Biso      1.000     C          0.656868  
         C23       1.0000    0.35270   0.25510   0.00910   Biso      1.000     C          -0.230383           
         C24       1.0000    0.44750   0.33360   0.86180   Biso      1.000     C          -0.248164           
         C25       1.0000    0.56140   0.43700   0.84190   Biso      1.000     C          0.688699  
         C26       1.0000    0.72830   0.18150   0.06870   Biso      1.000     C          0.656878  
         C27       1.0000    0.54680   0.72830   0.93130   Biso      1.000     C          0.656868  
         C28       1.0000    0.43860   0.56300   0.15810   Biso      1.000     C          0.688699  
         C29       1.0000    0.11390   0.44750   0.13820   Biso      1.000     C          -0.24816799999999997          
         C30       1.0000    0.45320   0.18150   0.56870   Biso      1.000     C          0.656878  
         C31       1.0000    0.35270   0.09760   0.50910   Biso      1.000     C          -0.230381           
         C32       1.0000    0.44750   0.11390   0.36180   Biso      1.000     C          -0.248164           
         C33       1.0000    0.12440   0.56140   0.15810   Biso      1.000     C          0.688696  
         C34       1.0000    0.72830   0.54680   0.56870   Biso      1.000     C          0.65687   
         C35       1.0000    0.74490   0.64730   0.50910   Biso      1.000     C          -0.23038000000000003          
         C36       1.0000    0.66640   0.55250   0.36180   Biso      1.000     C          -0.24816799999999997          
         C37       1.0000    0.56300   0.43860   0.34190   Biso      1.000     C          0.688696  
         C38       1.0000    0.81850   0.27170   0.56870   Biso      1.000     C          0.656868  
         C39       1.0000    0.56140   0.12440   0.34190   Biso      1.000     C          0.6886939999999999  
         C40       1.0000    0.88610   0.33360   0.36180   Biso      1.000     C          -0.248164           
         C41       1.0000    0.87560   0.43700   0.34190   Biso      1.000     C          0.6886979999999999  
         C42       1.0000    0.27170   0.81850   0.93130   Biso      1.000     C          0.656878  
         C43       1.0000    0.25510   0.90240   0.99090   Biso      1.000     C          -0.230381           
         C44       1.0000    0.33360   0.88610   0.13820   Biso      1.000     C          -0.248164           
         C45       1.0000    0.43700   0.87560   0.15810   Biso      1.000     C          0.6886939999999999  
         C46       1.0000    0.09760   0.35270   0.99090   Biso      1.000     C          -0.230379           
         C47       1.0000    0.18150   0.45320   0.93130   Biso      1.000     C          0.65687   
         C48       1.0000    0.90240   0.25510   0.50910   Biso      1.000     C          -0.230383           
         Cu1       1.0000    0.50000   0.50000   0.00000   Biso      1.000     Cu          0.782032  
         Cu2       1.0000    0.00000   0.50000   0.00000   Biso      1.000     Cu          0.782034  
         Cu3       1.0000    0.00000   0.50000   0.50000   Biso      1.000     Cu          0.782035  
         Cu4       1.0000    0.50000   0.50000   0.50000   Biso      1.000     Cu          0.782036  
         Cu5       1.0000    0.50000   0.00000   0.50000   Biso      1.000     Cu          0.78205   
         Cu6       1.0000    0.50000   0.00000   0.00000   Biso      1.000     Cu          0.782049  
         H1        1.0000    0.81810   0.67920   0.47770   Biso      1.000     H          0.124975  
         H2        1.0000    0.32080   0.13890   0.47770   Biso      1.000     H          0.124964  
         H3        1.0000    0.29270   0.03960   0.54740   Biso      1.000     H          0.138375  
         H4        1.0000    0.39830   0.08190   0.30890   Biso      1.000     H          0.144714  
         H5        1.0000    0.45840   0.19010   0.37230   Biso      1.000     H          0.14851099999999998           
         H6        1.0000    0.32570   0.97460   0.42250   Biso      1.000     H          0.25904499999999997           
         H7        1.0000    0.74690   0.70730   0.54740   Biso      1.000     H          0.13838699999999998           
         H8        1.0000    0.68360   0.60170   0.30890   Biso      1.000     H          0.14472100000000002           
         H9        1.0000    0.26830   0.45840   0.62770   Biso      1.000     H          0.148516  
         H10       1.0000    0.31640   0.39830   0.69110   Biso      1.000     H          0.14472100000000002           
         H11       1.0000    0.73170   0.54160   0.37230   Biso      1.000     H          0.148516  
         H12       1.0000    0.35110   0.32570   0.57750   Biso      1.000     H          0.259049  
         H13       1.0000    0.13890   0.81810   0.52230   Biso      1.000     H          0.12497   
         H14       1.0000    0.03960   0.74690   0.45260   Biso      1.000     H          0.138378  
         H15       1.0000    0.08190   0.68360   0.69110   Biso      1.000     H          0.144717  
         H16       1.0000    0.19010   0.73170   0.62770   Biso      1.000     H          0.148518  
         H17       1.0000    0.97460   0.64890   0.57750   Biso      1.000     H          0.259048  
         H18       1.0000    0.81810   0.13890   0.97770   Biso      1.000     H          0.124964  
         H19       1.0000    0.74690   0.03960   0.04740   Biso      1.000     H          0.138375  
         H20       1.0000    0.68360   0.08190   0.80890   Biso      1.000     H          0.144714  
         H21       1.0000    0.73170   0.19010   0.87230   Biso      1.000     H          0.14851099999999998           
         H22       1.0000    0.64890   0.97460   0.92250   Biso      1.000     H          0.25904499999999997           
         H23       1.0000    0.86110   0.67920   0.97770   Biso      1.000     H          0.124971  
         H24       1.0000    0.96040   0.70730   0.04740   Biso      1.000     H          0.138383  
         H25       1.0000    0.91810   0.60170   0.80890   Biso      1.000     H          0.14471900000000001           
         H26       1.0000    0.80990   0.54160   0.87230   Biso      1.000     H          0.148514  
         H27       1.0000    0.02540   0.67430   0.92250   Biso      1.000     H          0.259048  
         H28       1.0000    0.32080   0.18190   0.97770   Biso      1.000     H          0.124973  
         H29       1.0000    0.29270   0.25310   0.04740   Biso      1.000     H          0.138382  
         H30       1.0000    0.39830   0.31640   0.80890   Biso      1.000     H          0.14472000000000002           
         H31       1.0000    0.45840   0.26830   0.87230   Biso      1.000     H          0.148519  
         H32       1.0000    0.32570   0.35110   0.92250   Biso      1.000     H          0.259049  
         H33       1.0000    0.25310   0.29270   0.45260   Biso      1.000     H          0.13838599999999998           
         H34       1.0000    0.67430   0.02540   0.57750   Biso      1.000     H          0.25904499999999997           
         H35       1.0000    0.18190   0.32080   0.52230   Biso      1.000     H          0.124974  
         H36       1.0000    0.54160   0.80990   0.62770   Biso      1.000     H          0.14851099999999998           
         H37       1.0000    0.64890   0.67430   0.42250   Biso      1.000     H          0.259049  
         H38       1.0000    0.86110   0.18190   0.47770   Biso      1.000     H          0.12497   
         H39       1.0000    0.96040   0.25310   0.54740   Biso      1.000     H          0.138379  
         H40       1.0000    0.91810   0.31640   0.30890   Biso      1.000     H          0.144717  
         H41       1.0000    0.80990   0.26830   0.37230   Biso      1.000     H          0.148518  
         H42       1.0000    0.02540   0.35110   0.42250   Biso      1.000     H          0.259048  
         H43       1.0000    0.18190   0.86110   0.02230   Biso      1.000     H          0.124963  
         H44       1.0000    0.25310   0.96040   0.95260   Biso      1.000     H          0.138373  
         H45       1.0000    0.31640   0.91810   0.19110   Biso      1.000     H          0.144714  
         H46       1.0000    0.26830   0.80990   0.12770   Biso      1.000     H          0.14851099999999998           
         H47       1.0000    0.35110   0.02540   0.07750   Biso      1.000     H          0.259044  
         H48       1.0000    0.03960   0.29270   0.95260   Biso      1.000     H          0.138383  
         H49       1.0000    0.13890   0.32080   0.02230   Biso      1.000     H          0.124971  
         H50       1.0000    0.19010   0.45840   0.12770   Biso      1.000     H          0.148514  
         H51       1.0000    0.97460   0.32570   0.07750   Biso      1.000     H          0.259048  
         H52       1.0000    0.67920   0.81810   0.02230   Biso      1.000     H          0.124974  
         H53       1.0000    0.70730   0.74690   0.95260   Biso      1.000     H          0.138383  
         H54       1.0000    0.60170   0.68360   0.19110   Biso      1.000     H          0.14472000000000002           
         H55       1.0000    0.54160   0.73170   0.12770   Biso      1.000     H          0.14852   
         H56       1.0000    0.67430   0.64890   0.07750   Biso      1.000     H          0.259049  
         H57       1.0000    0.67920   0.86110   0.52230   Biso      1.000     H          0.124964  
         H58       1.0000    0.70730   0.96040   0.45260   Biso      1.000     H          0.138376  
         H59       1.0000    0.60170   0.91810   0.69110   Biso      1.000     H          0.144715  
         H60       1.0000    0.08190   0.39830   0.19110   Biso      1.000     H          0.144718  
         N1        1.0000    0.61120   0.95960   0.55820   Biso      1.000     N          -0.282426           
         N2        1.0000    0.65160   0.04040   0.94180   Biso      1.000     N          -0.282427           
         N3        1.0000    0.34840   0.38880   0.55820   Biso      1.000     N          -0.28242399999999995          
         N4        1.0000    0.04040   0.65160   0.55820   Biso      1.000     N          -0.282427           
         N5        1.0000    0.95960   0.61120   0.94180   Biso      1.000     N          -0.282425           
         N6        1.0000    0.61120   0.65160   0.05820   Biso      1.000     N          -0.282426           
         N7        1.0000    0.38880   0.04040   0.44180   Biso      1.000     N          -0.282426           
         N8        1.0000    0.65160   0.61120   0.44180   Biso      1.000     N          -0.28242399999999995          
         N9        1.0000    0.95960   0.34840   0.44180   Biso      1.000     N          -0.282427           
         N10       1.0000    0.34840   0.95960   0.05820   Biso      1.000     N          -0.282427           
         N11       1.0000    0.38880   0.34840   0.94180   Biso      1.000     N          -0.282426           
         N12       1.0000    0.04040   0.38880   0.05820   Biso      1.000     N          -0.282425           
         Nd1       1.0000    0.66667   0.33334   0.66903   Biso      1.000     Nd          2.0792330000000003  
         Nd2       1.0000    0.66667   0.33334   0.16903   Biso      1.000     Nd          2.079232  
         Nd3       1.0000    0.33333   0.66666   0.33097   Biso      1.000     Nd          2.079232  
         Nd4       1.0000    0.33333   0.66666   0.83097   Biso      1.000     Nd          2.079232  
         O1        1.0000    0.38500   0.56390   0.22500   Biso      1.000     O          -0.653713           
         O2        1.0000    0.45250   0.63780   0.94290   Biso      1.000     O          -0.675894           
         O3        1.0000    0.56030   0.80210   0.87630   Biso      1.000     O          -0.615621           
         O4        1.0000    0.07460   0.59830   0.10540   Biso      1.000     O          -0.5390659999999999           
         O5        1.0000    0.17890   0.61500   0.22500   Biso      1.000     O          -0.6537069999999999           
         O6        1.0000    0.18530   0.54750   0.94290   Biso      1.000     O          -0.6758850000000001           
         O7        1.0000    0.24180   0.43970   0.87630   Biso      1.000     O          -0.615653           
         O8        1.0000    0.52370   0.92540   0.10540   Biso      1.000     O          -0.5390739999999999           
         O9        1.0000    0.43610   0.82110   0.22500   Biso      1.000     O          -0.653721           
         O10       1.0000    0.36220   0.81470   0.94290   Biso      1.000     O          -0.675926           
         O11       1.0000    0.92540   0.52370   0.39460   Biso      1.000     O          -0.5390689999999999           
         O12       1.0000    0.40170   0.47630   0.10540   Biso      1.000     O          -0.539067           
         O13       1.0000    0.82110   0.43610   0.27500   Biso      1.000     O          -0.653716           
         O14       1.0000    0.81470   0.36220   0.55710   Biso      1.000     O          -0.675896           
         O15       1.0000    0.75820   0.19790   0.62370   Biso      1.000     O          -0.6156229999999999           
         O16       1.0000    0.47630   0.40170   0.39460   Biso      1.000     O          -0.539064           
         O17       1.0000    0.56390   0.38500   0.27500   Biso      1.000     O          -0.653704           
         O18       1.0000    0.63780   0.45250   0.55710   Biso      1.000     O          -0.6758850000000001           
         O19       1.0000    0.80210   0.56030   0.62370   Biso      1.000     O          -0.61565  
         O20       1.0000    0.59830   0.07460   0.39460   Biso      1.000     O          -0.5390729999999999           
         O21       1.0000    0.61500   0.17890   0.27500   Biso      1.000     O          -0.653721           
         O22       1.0000    0.19790   0.75820   0.87630   Biso      1.000     O          -0.615638           
         O23       1.0000    0.56030   0.75820   0.37630   Biso      1.000     O          -0.615639           
         O24       1.0000    0.45250   0.81470   0.44290   Biso      1.000     O          -0.675924           
         O25       1.0000    0.38500   0.82110   0.72500   Biso      1.000     O          -0.653721           
         O26       1.0000    0.59830   0.52370   0.89460   Biso      1.000     O          -0.539067           
         O27       1.0000    0.61500   0.43610   0.77500   Biso      1.000     O          -0.653714           
         O28       1.0000    0.54750   0.36220   0.05710   Biso      1.000     O          -0.675895           
         O29       1.0000    0.43970   0.19790   0.12370   Biso      1.000     O          -0.615621           
         O30       1.0000    0.92540   0.40170   0.89460   Biso      1.000     O          -0.5390659999999999           
         O31       1.0000    0.82110   0.38500   0.77500   Biso      1.000     O          -0.6537069999999999           
         O32       1.0000    0.81470   0.45250   0.05710   Biso      1.000     O          -0.6758850000000001           
         O33       1.0000    0.75820   0.56030   0.12370   Biso      1.000     O          -0.615653           
         O34       1.0000    0.47630   0.07460   0.89460   Biso      1.000     O          -0.5390739999999999           
         O35       1.0000    0.56390   0.17890   0.77500   Biso      1.000     O          -0.653721           
         O36       1.0000    0.63780   0.18530   0.05710   Biso      1.000     O          -0.675926           
         O37       1.0000    0.80210   0.24180   0.12370   Biso      1.000     O          -0.615637           
         O38       1.0000    0.07460   0.47630   0.60540   Biso      1.000     O          -0.5390689999999999           
         O39       1.0000    0.17890   0.56390   0.72500   Biso      1.000     O          -0.653716           
         O40       1.0000    0.18530   0.63780   0.44290   Biso      1.000     O          -0.675896           
         O41       1.0000    0.24180   0.80210   0.37630   Biso      1.000     O          -0.6156229999999999           
         O42       1.0000    0.52370   0.59830   0.60540   Biso      1.000     O          -0.539065           
         O43       1.0000    0.43610   0.61500   0.72500   Biso      1.000     O          -0.653705           
         O44       1.0000    0.36220   0.54750   0.44290   Biso      1.000     O          -0.6758850000000001           
         O45       1.0000    0.19790   0.43970   0.37630   Biso      1.000     O          -0.61565  
         O46       1.0000    0.40170   0.92540   0.60540   Biso      1.000     O          -0.5390729999999999           
         O47       1.0000    0.54750   0.18530   0.55710   Biso      1.000     O          -0.675925           
         O48       1.0000    0.43970   0.24180   0.62370   Biso      1.000     O          -0.615639 