
##########################################################################
#               Crystallographic Information Format file
#               Produced by PyCifRW module
#
#  This is a CIF file.  CIF has been adopted by the International
#  Union of Crystallography as the standard for data archiving and
#  transmission.
#
#  For information on this file format, follow the CIF links at
#  http://www.iucr.org
##########################################################################

data_image0

_cell_length_a                          13.454
_cell_length_b                          13.454
_cell_length_c                          14.856
_cell_angle_alpha                       90
_cell_angle_beta                        90
_cell_angle_gamma                       120
_symmetry_space_group_name_H-M          'P 1'
_symmetry_int_tables_number             1
loop_
  _symmetry_equiv_pos_as_xyz
         'x, y, z' 
loop_
  _atom_site_label
  _atom_site_occupancy
  _atom_site_fract_x
  _atom_site_fract_y
  _atom_site_fract_z
  _atom_site_thermal_displace_type
  _atom_site_B_iso_or_equiv
  _atom_site_type_symbol
  _atom_site_charge
         C1        1.0000    0.25530   0.35200   0.49030   Biso      1.000     C          -0.22192800000000001          
         C2        1.0000    0.54800   0.81980   0.43320   Biso      1.000     C          0.646324  
         C3        1.0000    0.64800   0.90330   0.49030   Biso      1.000     C          -0.22191999999999998          
         C4        1.0000    0.55390   0.88780   0.63770   Biso      1.000     C          -0.241592           
         C5        1.0000    0.43950   0.87800   0.65720   Biso      1.000     C          0.684942  
         C6        1.0000    0.27180   0.45200   0.43320   Biso      1.000     C          0.646333  
         C7        1.0000    0.33390   0.44610   0.63770   Biso      1.000     C          -0.24157800000000001          
         C8        1.0000    0.43850   0.56050   0.65720   Biso      1.000     C          0.684968  
         C9        1.0000    0.18020   0.72820   0.43320   Biso      1.000     C          0.646331  
         C10       1.0000    0.09670   0.74470   0.49030   Biso      1.000     C          -0.22190700000000002          
         C11       1.0000    0.43950   0.56150   0.15720   Biso      1.000     C          0.684962  
         C12       1.0000    0.11220   0.66610   0.63770   Biso      1.000     C          -0.24158600000000002          
         C13       1.0000    0.72820   0.18020   0.06680   Biso      1.000     C          0.646328  
         C14       1.0000    0.74470   0.09670   0.00970   Biso      1.000     C          -0.22191  
         C15       1.0000    0.66610   0.11220   0.86230   Biso      1.000     C          -0.241583           
         C16       1.0000    0.56150   0.12200   0.84280   Biso      1.000     C          0.684926  
         C17       1.0000    0.81980   0.54800   0.06680   Biso      1.000     C          0.646332  
         C18       1.0000    0.90330   0.64800   0.00970   Biso      1.000     C          -0.22191599999999997          
         C19       1.0000    0.87800   0.43950   0.84280   Biso      1.000     C          0.684945  
         C20       1.0000    0.45200   0.27180   0.06680   Biso      1.000     C          0.646332  
         C21       1.0000    0.35200   0.25530   0.00970   Biso      1.000     C          -0.221921           
         C22       1.0000    0.12200   0.56150   0.65720   Biso      1.000     C          0.684937  
         C23       1.0000    0.44610   0.33390   0.86230   Biso      1.000     C          -0.241573           
         C24       1.0000    0.55390   0.66610   0.13770   Biso      1.000     C          -0.241575           
         C25       1.0000    0.54800   0.72820   0.93320   Biso      1.000     C          0.646332  
         C26       1.0000    0.45200   0.18020   0.56680   Biso      1.000     C          0.646324  
         C27       1.0000    0.35200   0.09670   0.50970   Biso      1.000     C          -0.22191799999999998          
         C28       1.0000    0.44610   0.11220   0.36230   Biso      1.000     C          -0.241592           
         C29       1.0000    0.56050   0.12200   0.34280   Biso      1.000     C          0.684942  
         C30       1.0000    0.72820   0.54800   0.56680   Biso      1.000     C          0.646336  
         C31       1.0000    0.74470   0.64800   0.50970   Biso      1.000     C          -0.22193000000000002          
         C32       1.0000    0.66610   0.55390   0.36230   Biso      1.000     C          -0.24157800000000001          
         C33       1.0000    0.56150   0.43950   0.34280   Biso      1.000     C          0.684968  
         C34       1.0000    0.81980   0.27180   0.56680   Biso      1.000     C          0.646332  
         C35       1.0000    0.64800   0.74470   0.99030   Biso      1.000     C          -0.22192399999999998          
         C36       1.0000    0.90330   0.25530   0.50970   Biso      1.000     C          -0.22191  
         C37       1.0000    0.87800   0.43850   0.34280   Biso      1.000     C          0.684934  
         C38       1.0000    0.27180   0.81980   0.93320   Biso      1.000     C          0.646328  
         C39       1.0000    0.25530   0.90330   0.99030   Biso      1.000     C          -0.221908           
         C40       1.0000    0.33390   0.88780   0.13770   Biso      1.000     C          -0.24158200000000002          
         C41       1.0000    0.43850   0.87800   0.15720   Biso      1.000     C          0.684925  
         C42       1.0000    0.18020   0.45200   0.93320   Biso      1.000     C          0.646333  
         C43       1.0000    0.09670   0.35200   0.99030   Biso      1.000     C          -0.22191100000000002          
         C44       1.0000    0.11220   0.44610   0.13770   Biso      1.000     C          -0.24159299999999997          
         C45       1.0000    0.12200   0.56050   0.15720   Biso      1.000     C          0.684944  
         C46       1.0000    0.88780   0.33390   0.36230   Biso      1.000     C          -0.241583           
         C47       1.0000    0.56050   0.43850   0.84280   Biso      1.000     C          0.68496   
         C48       1.0000    0.88780   0.55390   0.86230   Biso      1.000     C          -0.24159299999999997          
         Cu1       1.0000    0.50000   0.50000   0.00000   Biso      1.000     Cu          0.786852  
         Cu2       1.0000    0.00000   0.50000   0.00000   Biso      1.000     Cu          0.786633  
         Cu3       1.0000    0.50000   0.00000   0.00000   Biso      1.000     Cu          0.786337  
         Cu4       1.0000    0.00000   0.50000   0.50000   Biso      1.000     Cu          0.786307  
         Cu5       1.0000    0.50000   0.50000   0.50000   Biso      1.000     Cu          0.786945  
         Cu6       1.0000    0.50000   0.00000   0.50000   Biso      1.000     Cu          0.786625  
         H1        1.0000    0.03890   0.29320   0.95200   Biso      1.000     H          0.142066  
         H2        1.0000    0.81810   0.13740   0.97900   Biso      1.000     H          0.126368  
         H3        1.0000    0.97430   0.64830   0.57650   Biso      1.000     H          0.259232  
         H4        1.0000    0.18840   0.73130   0.62800   Biso      1.000     H          0.148644  
         H5        1.0000    0.07950   0.68290   0.68970   Biso      1.000     H          0.144744  
         H6        1.0000    0.03890   0.74570   0.45200   Biso      1.000     H          0.142036  
         H7        1.0000    0.26870   0.45710   0.62800   Biso      1.000     H          0.14873699999999998           
         H8        1.0000    0.35170   0.32600   0.57650   Biso      1.000     H          0.259327  
         H9        1.0000    0.74570   0.03890   0.04800   Biso      1.000     H          0.142041  
         H10       1.0000    0.31710   0.39660   0.68970   Biso      1.000     H          0.144802  
         H11       1.0000    0.25430   0.29320   0.45200   Biso      1.000     H          0.142097  
         H12       1.0000    0.13740   0.81810   0.52100   Biso      1.000     H          0.126367  
         H13       1.0000    0.68290   0.07950   0.81030   Biso      1.000     H          0.144741  
         H14       1.0000    0.07950   0.39660   0.18970   Biso      1.000     H          0.144776  
         H15       1.0000    0.64830   0.97430   0.92350   Biso      1.000     H          0.259235  
         H16       1.0000    0.18190   0.31930   0.52100   Biso      1.000     H          0.126474  
         H17       1.0000    0.96110   0.70680   0.04800   Biso      1.000     H          0.142075  
         H18       1.0000    0.92050   0.60340   0.81030   Biso      1.000     H          0.144778  
         H19       1.0000    0.81160   0.54290   0.87200   Biso      1.000     H          0.148649  
         H20       1.0000    0.02570   0.67400   0.92350   Biso      1.000     H          0.259297  
         H21       1.0000    0.31930   0.18190   0.97900   Biso      1.000     H          0.12645699999999999           
         H22       1.0000    0.29320   0.25430   0.04800   Biso      1.000     H          0.142086  
         H23       1.0000    0.39660   0.31710   0.81030   Biso      1.000     H          0.14478   
         H24       1.0000    0.45710   0.26870   0.87200   Biso      1.000     H          0.148727  
         H25       1.0000    0.32600   0.35170   0.92350   Biso      1.000     H          0.259311  
         H26       1.0000    0.73130   0.18840   0.87200   Biso      1.000     H          0.14864000000000002           
         H27       1.0000    0.67400   0.02570   0.57650   Biso      1.000     H          0.259297  
         H28       1.0000    0.86260   0.68070   0.97900   Biso      1.000     H          0.12639   
         H29       1.0000    0.60340   0.92050   0.68970   Biso      1.000     H          0.14478   
         H30       1.0000    0.68290   0.60340   0.31030   Biso      1.000     H          0.144806  
         H31       1.0000    0.73130   0.54290   0.37200   Biso      1.000     H          0.14873699999999998           
         H32       1.0000    0.64830   0.67400   0.42350   Biso      1.000     H          0.259327  
         H33       1.0000    0.86260   0.18190   0.47900   Biso      1.000     H          0.12637   
         H34       1.0000    0.96110   0.25430   0.54800   Biso      1.000     H          0.14204   
         H35       1.0000    0.92050   0.31710   0.31030   Biso      1.000     H          0.144746  
         H36       1.0000    0.74570   0.70680   0.54800   Biso      1.000     H          0.142097  
         H37       1.0000    0.81160   0.26870   0.37200   Biso      1.000     H          0.148645  
         H38       1.0000    0.25430   0.96110   0.95200   Biso      1.000     H          0.142038  
         H39       1.0000    0.31710   0.92050   0.18970   Biso      1.000     H          0.144738  
         H40       1.0000    0.26870   0.81160   0.12800   Biso      1.000     H          0.14863900000000002           
         H41       1.0000    0.35170   0.02570   0.07650   Biso      1.000     H          0.259235  
         H42       1.0000    0.13740   0.31930   0.02100   Biso      1.000     H          0.126385  
         H43       1.0000    0.54290   0.81160   0.62800   Biso      1.000     H          0.148641  
         H44       1.0000    0.02570   0.35170   0.42350   Biso      1.000     H          0.259232  
         H45       1.0000    0.81810   0.68070   0.47900   Biso      1.000     H          0.126474  
         H46       1.0000    0.18190   0.86260   0.02100   Biso      1.000     H          0.126366  
         H47       1.0000    0.45710   0.18840   0.37200   Biso      1.000     H          0.148641  
         H48       1.0000    0.39660   0.07950   0.31030   Biso      1.000     H          0.144779  
         H49       1.0000    0.29320   0.03890   0.54800   Biso      1.000     H          0.142068  
         H50       1.0000    0.31930   0.13740   0.47900   Biso      1.000     H          0.126376  
         H51       1.0000    0.18840   0.45710   0.12800   Biso      1.000     H          0.148648  
         H52       1.0000    0.97430   0.32600   0.07650   Biso      1.000     H          0.259296  
         H53       1.0000    0.68070   0.81810   0.02100   Biso      1.000     H          0.126461  
         H54       1.0000    0.70680   0.74570   0.95200   Biso      1.000     H          0.142091  
         H55       1.0000    0.60340   0.68290   0.18970   Biso      1.000     H          0.144782  
         H56       1.0000    0.32600   0.97430   0.42350   Biso      1.000     H          0.259296  
         H57       1.0000    0.54290   0.73130   0.12800   Biso      1.000     H          0.148727  
         H58       1.0000    0.67400   0.64830   0.07650   Biso      1.000     H          0.259312  
         H59       1.0000    0.68070   0.86260   0.52100   Biso      1.000     H          0.126377  
         H60       1.0000    0.70680   0.96110   0.45200   Biso      1.000     H          0.14207   
         N1        1.0000    0.61120   0.65140   0.05788   Biso      1.000     N          -0.28527800000000003          
         N2        1.0000    0.04020   0.38880   0.05788   Biso      1.000     N          -0.28530900000000003          
         N3        1.0000    0.65140   0.61120   0.44212   Biso      1.000     N          -0.28525100000000003          
         N4        1.0000    0.95980   0.34860   0.44212   Biso      1.000     N          -0.285371           
         N5        1.0000    0.61120   0.95980   0.55788   Biso      1.000     N          -0.285308           
         N6        1.0000    0.38880   0.04020   0.44212   Biso      1.000     N          -0.285308           
         N7        1.0000    0.34860   0.95980   0.05788   Biso      1.000     N          -0.285367           
         N8        1.0000    0.34860   0.38880   0.55788   Biso      1.000     N          -0.28525100000000003          
         N9        1.0000    0.38880   0.34860   0.94212   Biso      1.000     N          -0.28527800000000003          
         N10       1.0000    0.65140   0.04020   0.94212   Biso      1.000     N          -0.285366           
         N11       1.0000    0.95980   0.61120   0.94212   Biso      1.000     N          -0.28530900000000003          
         N12       1.0000    0.04020   0.65140   0.55788   Biso      1.000     N          -0.28537199999999996          
         O1        1.0000    0.45300   0.63690   0.94322   Biso      1.000     O          -0.671198           
         O2        1.0000    0.38530   0.56360   0.22490   Biso      1.000     O          -0.672027           
         O3        1.0000    0.56190   0.75820   0.37660   Biso      1.000     O          -0.627061           
         O4        1.0000    0.40250   0.47600   0.10497   Biso      1.000     O          -0.5255489999999999           
         O5        1.0000    0.52400   0.92650   0.10497   Biso      1.000     O          -0.525728           
         O6        1.0000    0.56190   0.80370   0.87660   Biso      1.000     O          -0.6269239999999999           
         O7        1.0000    0.07350   0.59750   0.10497   Biso      1.000     O          -0.5256029999999999           
         O8        1.0000    0.17830   0.61470   0.22490   Biso      1.000     O          -0.672086           
         O9        1.0000    0.18390   0.54700   0.94322   Biso      1.000     O          -0.6711010000000001           
         O10       1.0000    0.24180   0.43810   0.87660   Biso      1.000     O          -0.627061           
         O11       1.0000    0.43640   0.82170   0.22490   Biso      1.000     O          -0.672221           
         O12       1.0000    0.59750   0.07350   0.39503   Biso      1.000     O          -0.525604           
         O13       1.0000    0.19630   0.75820   0.87660   Biso      1.000     O          -0.627049           
         O14       1.0000    0.92650   0.52400   0.39503   Biso      1.000     O          -0.5257350000000001           
         O15       1.0000    0.82170   0.43640   0.27510   Biso      1.000     O          -0.672245           
         O16       1.0000    0.81610   0.36310   0.55678   Biso      1.000     O          -0.67114  
         O17       1.0000    0.75820   0.19630   0.62340   Biso      1.000     O          -0.627033           
         O18       1.0000    0.47600   0.40250   0.39503   Biso      1.000     O          -0.5255029999999999           
         O19       1.0000    0.56360   0.38530   0.27510   Biso      1.000     O          -0.671963           
         O20       1.0000    0.61470   0.17830   0.27510   Biso      1.000     O          -0.672082           
         O21       1.0000    0.80370   0.56190   0.62340   Biso      1.000     O          -0.6269170000000001           
         O22       1.0000    0.63690   0.45300   0.55678   Biso      1.000     O          -0.671191           
         O23       1.0000    0.45300   0.81610   0.44322   Biso      1.000     O          -0.671081           
         O24       1.0000    0.36310   0.81610   0.94322   Biso      1.000     O          -0.6711050000000001           
         O25       1.0000    0.38530   0.82170   0.72490   Biso      1.000     O          -0.672081           
         O26       1.0000    0.43810   0.24180   0.62340   Biso      1.000     O          -0.6270600000000001           
         O27       1.0000    0.19630   0.43810   0.37660   Biso      1.000     O          -0.6269170000000001           
         O28       1.0000    0.54700   0.18390   0.55678   Biso      1.000     O          -0.671082           
         O29       1.0000    0.59750   0.52400   0.89503   Biso      1.000     O          -0.5255489999999999           
         O30       1.0000    0.61470   0.43640   0.77510   Biso      1.000     O          -0.672028           
         O31       1.0000    0.54700   0.36310   0.05678   Biso      1.000     O          -0.671199           
         O32       1.0000    0.43810   0.19630   0.12340   Biso      1.000     O          -0.626923           
         O33       1.0000    0.92650   0.40250   0.89503   Biso      1.000     O          -0.525602           
         O34       1.0000    0.82170   0.38530   0.77510   Biso      1.000     O          -0.672086           
         O35       1.0000    0.81610   0.45300   0.05678   Biso      1.000     O          -0.671099           
         O36       1.0000    0.40250   0.92650   0.60497   Biso      1.000     O          -0.5256029999999999           
         O37       1.0000    0.47600   0.07350   0.89503   Biso      1.000     O          -0.525726           
         O38       1.0000    0.75820   0.56190   0.12340   Biso      1.000     O          -0.627059           
         O39       1.0000    0.63690   0.18390   0.05678   Biso      1.000     O          -0.671104           
         O40       1.0000    0.80370   0.24180   0.12340   Biso      1.000     O          -0.6270479999999999           
         O41       1.0000    0.07350   0.47600   0.60497   Biso      1.000     O          -0.525737           
         O42       1.0000    0.17830   0.56360   0.72490   Biso      1.000     O          -0.672246           
         O43       1.0000    0.18390   0.63690   0.44322   Biso      1.000     O          -0.671141           
         O44       1.0000    0.24180   0.80370   0.37660   Biso      1.000     O          -0.627034           
         O45       1.0000    0.52400   0.59750   0.60497   Biso      1.000     O          -0.525504           
         O46       1.0000    0.43640   0.61470   0.72490   Biso      1.000     O          -0.671963           
         O47       1.0000    0.36310   0.54700   0.44322   Biso      1.000     O          -0.671191           
         O48       1.0000    0.56360   0.17830   0.77510   Biso      1.000     O          -0.672221           
         Sm1       1.0000    0.66667   0.33334   0.16925   Biso      1.000     Sm          2.096699  
         Sm2       1.0000    0.33333   0.66666   0.33075   Biso      1.000     Sm          2.096693  
         Sm3       1.0000    0.33333   0.66666   0.83075   Biso      1.000     Sm          2.096696  
         Sm4       1.0000    0.66667   0.33334   0.66925   Biso      1.000     Sm          2.096695 