
##########################################################################
#               Crystallographic Information Format file
#               Produced by PyCifRW module
#
#  This is a CIF file.  CIF has been adopted by the International
#  Union of Crystallography as the standard for data archiving and
#  transmission.
#
#  For information on this file format, follow the CIF links at
#  http://www.iucr.org
##########################################################################

data_image0

_cell_length_a                          9.1602
_cell_length_b                          9.1602
_cell_length_c                          14.894
_cell_angle_alpha                       80.0126
_cell_angle_beta                        80.0123
_cell_angle_gamma                       115.85
_symmetry_space_group_name_H-M          'P 1'
_symmetry_int_tables_number             1
loop_
  _symmetry_equiv_pos_as_xyz
         'x, y, z' 
loop_
  _atom_site_label
  _atom_site_occupancy
  _atom_site_fract_x
  _atom_site_fract_y
  _atom_site_fract_z
  _atom_site_thermal_displace_type
  _atom_site_B_iso_or_equiv
  _atom_site_type_symbol
  _atom_site_charge
         C1        1.0000    0.61860   0.29060   0.92060   Biso      1.000     C          -0.314474           
         C2        1.0000    0.24611   0.56111   0.06238   Biso      1.000     C          0.70691   
         C3        1.0000    0.38140   0.70940   0.07940   Biso      1.000     C          -0.314474           
         C4        1.0000    0.12349   0.30849   0.43762   Biso      1.000     C          0.7084    
         C5        1.0000    0.28880   0.46080   0.42060   Biso      1.000     C          -0.31299299999999997          
         C6        1.0000    0.43889   0.75389   0.43762   Biso      1.000     C          0.706937  
         C7        1.0000    0.29060   0.61860   0.42060   Biso      1.000     C          -0.314477           
         C8        1.0000    0.30849   0.12349   0.93762   Biso      1.000     C          0.708411  
         C9        1.0000    0.46080   0.28880   0.92060   Biso      1.000     C          -0.312992           
         C10       1.0000    0.75389   0.43889   0.93762   Biso      1.000     C          0.706909  
         C11       1.0000    0.87651   0.69151   0.56238   Biso      1.000     C          0.7084    
         C12       1.0000    0.71120   0.53920   0.57940   Biso      1.000     C          -0.31299299999999997          
         C13       1.0000    0.56111   0.24611   0.56238   Biso      1.000     C          0.706937  
         C14       1.0000    0.70940   0.38140   0.57940   Biso      1.000     C          -0.31447600000000003          
         C15       1.0000    0.92490   0.07510   0.25000   Biso      1.000     C          0.519046  
         C16       1.0000    0.82510   0.17490   0.25000   Biso      1.000     C          0.519702  
         C17       1.0000    0.07510   0.92490   0.75000   Biso      1.000     C          0.519046  
         C18       1.0000    0.17490   0.82510   0.75000   Biso      1.000     C          0.519702  
         C19       1.0000    0.53920   0.71120   0.07940   Biso      1.000     C          -0.31299099999999996          
         C20       1.0000    0.69151   0.87651   0.06238   Biso      1.000     C          0.708411  
         Ce1       1.0000    0.99050   0.24050   0.01900   Biso      1.000     Ce          2.068754  
         Ce2       1.0000    0.75950   0.00950   0.48100   Biso      1.000     Ce          2.068761  
         Ce3       1.0000    0.00950   0.75950   0.98100   Biso      1.000     Ce          2.068755  
         Ce4       1.0000    0.24050   0.99050   0.51900   Biso      1.000     Ce          2.068762  
         H1        1.0000    0.80940   0.40560   0.53140   Biso      1.000     H          0.138961  
         H2        1.0000    0.72010   0.33610   0.64040   Biso      1.000     H          0.142564  
         H3        1.0000    0.56300   0.65920   0.03140   Biso      1.000     H          0.137992  
         H4        1.0000    0.40560   0.80940   0.03140   Biso      1.000     H          0.138958  
         H5        1.0000    0.33610   0.72010   0.14040   Biso      1.000     H          0.142567  
         H6        1.0000    0.34080   0.43700   0.46860   Biso      1.000     H          0.137997  
         H7        1.0000    0.52350   0.63950   0.14040   Biso      1.000     H          0.14175   
         H8        1.0000    0.19060   0.59440   0.46860   Biso      1.000     H          0.138961  
         H9        1.0000    0.27990   0.66390   0.35960   Biso      1.000     H          0.142565  
         H10       1.0000    0.43700   0.34080   0.96860   Biso      1.000     H          0.137993  
         H11       1.0000    0.47650   0.36050   0.85960   Biso      1.000     H          0.14175   
         H12       1.0000    0.59440   0.19060   0.96860   Biso      1.000     H          0.138958  
         H13       1.0000    0.66390   0.27990   0.85960   Biso      1.000     H          0.142566  
         H14       1.0000    0.65920   0.56300   0.53140   Biso      1.000     H          0.137996  
         H15       1.0000    0.36050   0.47650   0.35960   Biso      1.000     H          0.141749  
         H16       1.0000    0.63950   0.52350   0.64040   Biso      1.000     H          0.141749  
         O1        1.0000    0.26146   0.83940   0.67094   Biso      1.000     O          -0.6026050000000001           
         O2        1.0000    0.16665   0.11263   0.96712   Biso      1.000     O          -0.74754  
         O3        1.0000    0.32082   0.99898   0.92020   Biso      1.000     O          -0.618829           
         O4        1.0000    0.16060   0.73854   0.82906   Biso      1.000     O          -0.6026100000000001           
         O5        1.0000    0.86623   0.42025   0.96712   Biso      1.000     O          -0.747887           
         O6        1.0000    0.00102   0.67918   0.57980   Biso      1.000     O          -0.6188279999999999           
         O7        1.0000    0.06760   0.98966   0.67094   Biso      1.000     O          -0.602313           
         O8        1.0000    0.88737   0.83335   0.53288   Biso      1.000     O          -0.74753  
         O9        1.0000    0.01034   0.93240   0.82906   Biso      1.000     O          -0.6023069999999999           
         O10       1.0000    0.75898   0.58082   0.92020   Biso      1.000     O          -0.61808  
         O11       1.0000    0.58082   0.75898   0.42020   Biso      1.000     O          -0.618102           
         O12       1.0000    0.67918   0.00102   0.07980   Biso      1.000     O          -0.618829           
         O13       1.0000    0.73854   0.16060   0.32906   Biso      1.000     O          -0.6026050000000001           
         O14       1.0000    0.99898   0.32082   0.42020   Biso      1.000     O          -0.6188279999999999           
         O15       1.0000    0.11263   0.16665   0.46712   Biso      1.000     O          -0.74753  
         O16       1.0000    0.93240   0.01034   0.32906   Biso      1.000     O          -0.602313           
         O17       1.0000    0.24102   0.41918   0.07980   Biso      1.000     O          -0.61808  
         O18       1.0000    0.13377   0.57975   0.03288   Biso      1.000     O          -0.747887           
         O19       1.0000    0.83940   0.26146   0.17094   Biso      1.000     O          -0.6026100000000001           
         O20       1.0000    0.83335   0.88737   0.03288   Biso      1.000     O          -0.74754  
         O21       1.0000    0.98966   0.06760   0.17094   Biso      1.000     O          -0.6023069999999999           
         O22       1.0000    0.57975   0.13377   0.53288   Biso      1.000     O          -0.747894           
         O23       1.0000    0.42025   0.86623   0.46712   Biso      1.000     O          -0.747894           
         O24       1.0000    0.41918   0.24102   0.57980   Biso      1.000     O          -0.618102 