
##########################################################################
#               Crystallographic Information Format file
#               Produced by PyCifRW module
#
#  This is a CIF file.  CIF has been adopted by the International
#  Union of Crystallography as the standard for data archiving and
#  transmission.
#
#  For information on this file format, follow the CIF links at
#  http://www.iucr.org
##########################################################################

data_image0

_cell_length_a                          9.5475
_cell_length_b                          11.44
_cell_length_c                          13.2092
_cell_angle_alpha                       90
_cell_angle_beta                        109.974
_cell_angle_gamma                       90
_symmetry_space_group_name_H-M          'P 1'
_symmetry_int_tables_number             1
loop_
  _symmetry_equiv_pos_as_xyz
         'x, y, z' 
loop_
  _atom_site_label
  _atom_site_occupancy
  _atom_site_fract_x
  _atom_site_fract_y
  _atom_site_fract_z
  _atom_site_thermal_displace_type
  _atom_site_B_iso_or_equiv
  _atom_site_type_symbol
  _atom_site_charge
         C1        1.0000    0.85454   0.43818   0.21648   Biso      1.000     C          -0.280787           
         C2        1.0000    0.14546   0.93818   0.78352   Biso      1.000     C          -0.280787           
         C3        1.0000    0.62236   0.50037   0.01886   Biso      1.000     C          -0.284933           
         C4        1.0000    0.37764   0.00037   0.98114   Biso      1.000     C          -0.284934           
         C5        1.0000    0.93199   0.52378   0.04174   Biso      1.000     C          -0.28643  
         C6        1.0000    0.06801   0.02378   0.95826   Biso      1.000     C          -0.28643  
         C7        1.0000    0.75758   0.37279   0.93380   Biso      1.000     C          -0.04774  
         C8        1.0000    0.24242   0.87279   0.06620   Biso      1.000     C          -0.047741           
         C9        1.0000    0.95336   0.31928   0.10194   Biso      1.000     C          -0.036961           
         C10       1.0000    0.04664   0.81928   0.89806   Biso      1.000     C          -0.036961           
         C11       1.0000    0.69500   0.29918   0.08623   Biso      1.000     C          -0.024247           
         C12       1.0000    0.30500   0.79918   0.91377   Biso      1.000     C          -0.024247           
         C13       1.0000    0.91423   0.54437   0.52335   Biso      1.000     C          -0.292059           
         C14       1.0000    0.08577   0.04437   0.47665   Biso      1.000     C          -0.292059           
         C15       1.0000    0.62179   0.57072   0.53649   Biso      1.000     C          -0.300772           
         C16       1.0000    0.37821   0.07072   0.46351   Biso      1.000     C          -0.300773           
         C17       1.0000    0.88062   0.63581   0.71301   Biso      1.000     C          -0.27864  
         C18       1.0000    0.11938   0.13581   0.28699   Biso      1.000     C          -0.27864  
         C19       1.0000    0.72991   0.69558   0.42917   Biso      1.000     C          -0.062011           
         C20       1.0000    0.27009   0.19558   0.57083   Biso      1.000     C          -0.062011           
         C21       1.0000    0.94792   0.75136   0.58150   Biso      1.000     C          -0.028693           
         C22       1.0000    0.05208   0.25136   0.41850   Biso      1.000     C          -0.028693           
         C23       1.0000    0.70204   0.77352   0.59337   Biso      1.000     C          -0.020089           
         C24       1.0000    0.29796   0.27352   0.40663   Biso      1.000     C          -0.020089           
         H1        1.0000    0.97038   0.45306   0.27109   Biso      1.000     H          0.136583  
         H2        1.0000    0.02962   0.95306   0.72891   Biso      1.000     H          0.136582  
         H3        1.0000    0.77412   0.43753   0.26020   Biso      1.000     H          0.163186  
         H4        1.0000    0.22588   0.93753   0.73980   Biso      1.000     H          0.163186  
         H5        1.0000    0.53807   0.50329   0.05927   Biso      1.000     H          0.161718  
         H6        1.0000    0.46193   0.00329   0.94073   Biso      1.000     H          0.161718  
         H7        1.0000    0.57777   0.55382   0.94423   Biso      1.000     H          0.167034  
         H8        1.0000    0.42223   0.05382   0.05577   Biso      1.000     H          0.167033  
         H9        1.0000    0.90290   0.58188   0.97044   Biso      1.000     H          0.115176  
         H10       1.0000    0.09710   0.08188   0.02956   Biso      1.000     H          0.115176  
         H11       1.0000    0.05063   0.53754   0.09339   Biso      1.000     H          0.161158  
         H12       1.0000    0.94937   0.03754   0.90661   Biso      1.000     H          0.161156  
         H13       1.0000    0.72207   0.43376   0.86503   Biso      1.000     H          0.101886  
         H14       1.0000    0.27793   0.93376   0.13497   Biso      1.000     H          0.101885  
         H15       1.0000    0.75527   0.28258   0.90281   Biso      1.000     H          0.099639  
         H16       1.0000    0.24473   0.78258   0.09719   Biso      1.000     H          0.099639  
         H17       1.0000    0.94825   0.22954   0.07011   Biso      1.000     H          0.07786   
         H18       1.0000    0.05175   0.72954   0.92989   Biso      1.000     H          0.077859  
         H19       1.0000    0.06799   0.34122   0.15460   Biso      1.000     H          0.112393  
         H20       1.0000    0.93201   0.84122   0.84540   Biso      1.000     H          0.112393  
         H21       1.0000    0.61563   0.30816   0.12981   Biso      1.000     H          0.125825  
         H22       1.0000    0.38437   0.80816   0.87019   Biso      1.000     H          0.125824  
         H23       1.0000    0.69119   0.20797   0.05804   Biso      1.000     H          0.120064  
         H24       1.0000    0.30881   0.70797   0.94196   Biso      1.000     H          0.120063  
         H25       1.0000    0.03440   0.52370   0.56725   Biso      1.000     H          0.164085  
         H26       1.0000    0.96560   0.02370   0.43275   Biso      1.000     H          0.164085  
         H27       1.0000    0.86948   0.48729   0.45201   Biso      1.000     H          0.135912  
         H28       1.0000    0.13052   0.98729   0.54799   Biso      1.000     H          0.135912  
         H29       1.0000    0.57234   0.51486   0.46430   Biso      1.000     H          0.155995  
         H30       1.0000    0.42766   0.01486   0.53570   Biso      1.000     H          0.155995  
         H31       1.0000    0.54409   0.56929   0.58334   Biso      1.000     H          0.16903   
         H32       1.0000    0.45591   0.06929   0.41666   Biso      1.000     H          0.169029  
         H33       1.0000    0.81741   0.63848   0.76933   Biso      1.000     H          0.139195  
         H34       1.0000    0.18259   0.13848   0.23067   Biso      1.000     H          0.139194  
         H35       1.0000    0.00061   0.62179   0.75835   Biso      1.000     H          0.148098  
         H36       1.0000    0.99939   0.12179   0.24165   Biso      1.000     H          0.148097  
         H37       1.0000    0.72304   0.78435   0.39434   Biso      1.000     H          0.094062  
         H38       1.0000    0.27696   0.28435   0.60566   Biso      1.000     H          0.094062  
         H39       1.0000    0.68281   0.63122   0.36365   Biso      1.000     H          0.098979  
         H40       1.0000    0.31719   0.13122   0.63635   Biso      1.000     H          0.098979  
         H41       1.0000    0.06584   0.73041   0.62686   Biso      1.000     H          0.114319  
         H42       1.0000    0.93416   0.23041   0.37314   Biso      1.000     H          0.114318  
         H43       1.0000    0.93829   0.84027   0.54718   Biso      1.000     H          0.089707  
         H44       1.0000    0.06171   0.34027   0.45282   Biso      1.000     H          0.089707  
         H45       1.0000    0.69345   0.86400   0.56225   Biso      1.000     H          0.112648  
         H46       1.0000    0.30655   0.36400   0.43775   Biso      1.000     H          0.112649  
         H47       1.0000    0.63640   0.76811   0.64779   Biso      1.000     H          0.121143  
         H48       1.0000    0.36360   0.26811   0.35221   Biso      1.000     H          0.121143  
         N1        1.0000    0.84746   0.32613   0.15957   Biso      1.000     N          -0.099747           
         N2        1.0000    0.15254   0.82613   0.84043   Biso      1.000     N          -0.099748           
         N3        1.0000    0.64905   0.37806   0.99069   Biso      1.000     N          -0.085136           
         N4        1.0000    0.35095   0.87806   0.00931   Biso      1.000     N          -0.085134           
         N5        1.0000    0.91533   0.39914   0.00498   Biso      1.000     N          -0.08389  
         N6        1.0000    0.08467   0.89914   0.99502   Biso      1.000     N          -0.08389  
         N7        1.0000    0.89195   0.66913   0.48708   Biso      1.000     N          -0.080963           
         N8        1.0000    0.10805   0.16913   0.51292   Biso      1.000     N          -0.080963           
         N9        1.0000    0.63744   0.69253   0.50013   Biso      1.000     N          -0.078446           
         N10       1.0000    0.36256   0.19253   0.49987   Biso      1.000     N          -0.078444           
         N11       1.0000    0.86013   0.74754   0.65329   Biso      1.000     N          -0.108576           
         N12       1.0000    0.13987   0.24754   0.34671   Biso      1.000     N          -0.108576           
         O1        1.0000    0.38435   0.62286   0.12298   Biso      1.000     O          -0.709549           
         O2        1.0000    0.61565   0.12286   0.87702   Biso      1.000     O          -0.70955  
         O3        1.0000    0.53968   0.48133   0.25371   Biso      1.000     O          -0.718586           
         O4        1.0000    0.46032   0.98133   0.74629   Biso      1.000     O          -0.71859  
         O5        1.0000    0.27371   0.43822   0.15143   Biso      1.000     O          -0.707492           
         O6        1.0000    0.72629   0.93822   0.84857   Biso      1.000     O          -0.707485           
         O7        1.0000    0.33875   0.58448   0.29382   Biso      1.000     O          -0.696362           
         O8        1.0000    0.66125   0.08448   0.70618   Biso      1.000     O          -0.69636  
         O9        1.0000    0.53197   0.91344   0.27790   Biso      1.000     O          -0.708031           
         O10       1.0000    0.46803   0.41344   0.72210   Biso      1.000     O          -0.708032           
         O11       1.0000    0.66632   0.07343   0.39501   Biso      1.000     O          -0.689674           
         O12       1.0000    0.33368   0.57343   0.60499   Biso      1.000     O          -0.689674           
         O13       1.0000    0.61905   0.08063   0.19951   Biso      1.000     O          -0.672802           
         O14       1.0000    0.38095   0.58063   0.80049   Biso      1.000     O          -0.672801           
         O15       1.0000    0.80124   0.94046   0.31462   Biso      1.000     O          -0.731346           
         O16       1.0000    0.19876   0.44046   0.68538   Biso      1.000     O          -0.731347           
         P1        1.0000    0.80062   0.55394   0.11335   Biso      1.000     P          0.659362  
         P2        1.0000    0.19938   0.05394   0.88665   Biso      1.000     P          0.659362  
         P3        1.0000    0.80870   0.51836   0.61419   Biso      1.000     P          0.685046  
         P4        1.0000    0.19130   0.01836   0.38581   Biso      1.000     P          0.685047  
         S1        1.0000    0.80806   0.71970   0.17287   Biso      1.000     S          -0.448517           
         S2        1.0000    0.19194   0.21970   0.82713   Biso      1.000     S          -0.448517           
         S3        1.0000    0.82374   0.35810   0.68136   Biso      1.000     S          -0.453569           
         S4        1.0000    0.17626   0.85810   0.31864   Biso      1.000     S          -0.453568           
         S5        1.0000    0.38531   0.52973   0.20615   Biso      1.000     S          1.395696  
         S6        1.0000    0.61469   0.02973   0.79385   Biso      1.000     S          1.395692  
         S7        1.0000    0.65661   0.00553   0.29684   Biso      1.000     S          1.376722  
         S8        1.0000    0.34339   0.50553   0.70316   Biso      1.000     S          1.376723  
         Ag1       1.0000    0.00965   0.73521   0.37475   Biso      1.000     Ag          0.419818  
         Ag2       1.0000    0.99035   0.23521   0.62525   Biso      1.000     Ag          0.419818  
         Ag3       1.0000    0.55257   0.77534   0.15240   Biso      1.000     Ag          0.494055  
         Ag4       1.0000    0.44743   0.27534   0.84760   Biso      1.000     Ag          0.494056  
         Ag5       1.0000    0.58787   0.25901   0.61785   Biso      1.000     Ag          0.485103  
         Ag6       1.0000    0.41213   0.75901   0.38215   Biso      1.000     Ag          0.485099  
         Ag7       1.0000    0.92554   0.84219   0.07774   Biso      1.000     Ag          0.414555  
         Ag8       1.0000    0.07446   0.34219   0.92226   Biso      1.000     Ag          0.414557 