
##########################################################################
#               Crystallographic Information Format file
#               Produced by PyCifRW module
#
#  This is a CIF file.  CIF has been adopted by the International
#  Union of Crystallography as the standard for data archiving and
#  transmission.
#
#  For information on this file format, follow the CIF links at
#  http://www.iucr.org
##########################################################################

data_image0

_cell_length_a                          18.3847
_cell_length_b                          12.9256
_cell_length_c                          14.555
_cell_angle_alpha                       90
_cell_angle_beta                        120.068
_cell_angle_gamma                       90
_symmetry_space_group_name_H-M          'P 1'
_symmetry_int_tables_number             1
loop_
  _symmetry_equiv_pos_as_xyz
         'x, y, z' 
loop_
  _atom_site_label
  _atom_site_occupancy
  _atom_site_fract_x
  _atom_site_fract_y
  _atom_site_fract_z
  _atom_site_thermal_displace_type
  _atom_site_B_iso_or_equiv
  _atom_site_type_symbol
  _atom_site_charge
         C1        1.0000    0.34290   0.09950   0.09350   Biso      1.000     C          0.631157  
         C2        1.0000    0.61350   0.69080   0.41940   Biso      1.000     C          0.012402  
         C3        1.0000    0.53050   0.71400   0.34190   Biso      1.000     C          -0.256323           
         C4        1.0000    0.49050   0.80320   0.34880   Biso      1.000     C          0.304189  
         C5        1.0000    0.53470   0.86600   0.43810   Biso      1.000     C          -0.231396           
         C6        1.0000    0.61540   0.84260   0.51710   Biso      1.000     C          0.021118  
         C7        1.0000    0.65930   0.90570   0.61800   Biso      1.000     C          0.586445  
         C8        1.0000    0.09240   0.60860   0.62670   Biso      1.000     C          -0.194049           
         C9        1.0000    0.17770   0.63370   0.67300   Biso      1.000     C          0.224605  
         C10       1.0000    0.21120   0.70890   0.75240   Biso      1.000     C          -0.285316           
         C11       1.0000    0.65710   0.90050   0.90650   Biso      1.000     C          0.631157  
         C12       1.0000    0.61350   0.80920   0.91940   Biso      1.000     C          0.012401  
         C13       1.0000    0.53050   0.78600   0.84190   Biso      1.000     C          -0.256323           
         C14       1.0000    0.49050   0.69680   0.84880   Biso      1.000     C          0.304189  
         C15       1.0000    0.53470   0.63400   0.93810   Biso      1.000     C          -0.231396           
         C16       1.0000    0.61540   0.65740   0.01710   Biso      1.000     C          0.021118  
         C17       1.0000    0.65930   0.59430   0.11800   Biso      1.000     C          0.586445  
         C18       1.0000    0.65610   0.74570   0.00900   Biso      1.000     C          -0.11007  
         C19       1.0000    0.95260   0.87820   0.11690   Biso      1.000     C          0.582586  
         C20       1.0000    0.04230   0.84430   0.15980   Biso      1.000     C          0.047198  
         C21       1.0000    0.07640   0.76940   0.24010   Biso      1.000     C          -0.111997           
         C22       1.0000    0.16050   0.74320   0.28560   Biso      1.000     C          0.036346  
         C23       1.0000    0.19660   0.66230   0.37220   Biso      1.000     C          0.5883    
         C24       1.0000    0.21120   0.79110   0.25240   Biso      1.000     C          -0.285316           
         C25       1.0000    0.17770   0.86630   0.17300   Biso      1.000     C          0.224604  
         C26       1.0000    0.09240   0.89140   0.12670   Biso      1.000     C          -0.194044           
         C27       1.0000    0.19660   0.83770   0.87220   Biso      1.000     C          0.5883    
         C28       1.0000    0.16050   0.75680   0.78560   Biso      1.000     C          0.036345  
         C29       1.0000    0.07640   0.73060   0.74010   Biso      1.000     C          -0.111996           
         C30       1.0000    0.04230   0.65570   0.65980   Biso      1.000     C          0.047202  
         C31       1.0000    0.65710   0.59950   0.40650   Biso      1.000     C          0.631156  
         C32       1.0000    0.95260   0.62180   0.61690   Biso      1.000     C          0.582587  
         C33       1.0000    0.65610   0.75430   0.50900   Biso      1.000     C          -0.11007  
         C34       1.0000    0.34390   0.24570   0.49100   Biso      1.000     C          -0.110068           
         C35       1.0000    0.78880   0.20890   0.74760   Biso      1.000     C          -0.285316           
         C36       1.0000    0.80340   0.33770   0.62780   Biso      1.000     C          0.5883    
         C37       1.0000    0.83950   0.25680   0.71440   Biso      1.000     C          0.036344  
         C38       1.0000    0.92360   0.23060   0.75990   Biso      1.000     C          -0.111996           
         C39       1.0000    0.95770   0.15570   0.84020   Biso      1.000     C          0.047198  
         C40       1.0000    0.34290   0.40050   0.59350   Biso      1.000     C          0.631157  
         C41       1.0000    0.38650   0.30920   0.58060   Biso      1.000     C          0.0124    
         C42       1.0000    0.46950   0.28600   0.65810   Biso      1.000     C          -0.256323           
         C43       1.0000    0.50950   0.19680   0.65120   Biso      1.000     C          0.304188  
         C44       1.0000    0.46530   0.13400   0.56190   Biso      1.000     C          -0.231396           
         C45       1.0000    0.38460   0.15740   0.48290   Biso      1.000     C          0.021117  
         C46       1.0000    0.34070   0.09430   0.38200   Biso      1.000     C          0.586446  
         C47       1.0000    0.38650   0.19080   0.08060   Biso      1.000     C          0.012401  
         C48       1.0000    0.82230   0.13370   0.82700   Biso      1.000     C          0.224604  
         C49       1.0000    0.04740   0.37820   0.38310   Biso      1.000     C          0.582586  
         C50       1.0000    0.92360   0.26940   0.25990   Biso      1.000     C          -0.111998           
         C51       1.0000    0.83950   0.24320   0.21440   Biso      1.000     C          0.036346  
         C52       1.0000    0.80340   0.16230   0.12780   Biso      1.000     C          0.5883    
         C53       1.0000    0.78880   0.29110   0.24760   Biso      1.000     C          -0.285316           
         C54       1.0000    0.82230   0.36630   0.32700   Biso      1.000     C          0.224604  
         C55       1.0000    0.90760   0.39140   0.37330   Biso      1.000     C          -0.194049           
         C56       1.0000    0.04740   0.12180   0.88310   Biso      1.000     C          0.582587  
         C57       1.0000    0.34390   0.25430   0.99100   Biso      1.000     C          -0.110069           
         C58       1.0000    0.34070   0.40570   0.88200   Biso      1.000     C          0.586446  
         C59       1.0000    0.38460   0.34260   0.98290   Biso      1.000     C          0.021115  
         C60       1.0000    0.46530   0.36600   0.06190   Biso      1.000     C          -0.231393           
         C61       1.0000    0.50950   0.30320   0.15120   Biso      1.000     C          0.304188  
         C62       1.0000    0.46950   0.21400   0.15810   Biso      1.000     C          -0.256324           
         C63       1.0000    0.95770   0.34430   0.34020   Biso      1.000     C          0.047203  
         C64       1.0000    0.90760   0.10860   0.87330   Biso      1.000     C          -0.194044           
         H1        1.0000    0.06920   0.55950   0.57280   Biso      1.000     H          0.148246  
         H2        1.0000    0.77250   0.16217   0.88578   Biso      1.000     H          0.391712  
         H3        1.0000    0.49090   0.42540   0.05530   Biso      1.000     H          0.139456  
         H4        1.0000    0.77250   0.33783   0.38578   Biso      1.000     H          0.391712  
         H5        1.0000    0.49850   0.16920   0.21520   Biso      1.000     H          0.137274  
         H6        1.0000    0.26760   0.72720   0.78330   Biso      1.000     H          0.108439  
         H7        1.0000    0.28960   0.23810   0.93780   Biso      1.000     H          0.153425  
         H8        1.0000    0.95720   0.26250   0.73730   Biso      1.000     H          0.144501  
         H9        1.0000    0.73240   0.22720   0.71670   Biso      1.000     H          0.108439  
         H10       1.0000    0.93080   0.05950   0.92720   Biso      1.000     H          0.148246  
         H11       1.0000    0.38047   0.74553   0.25041   Biso      1.000     H          0.39113   
         H12       1.0000    0.04280   0.76250   0.76270   Biso      1.000     H          0.144501  
         H13       1.0000    0.22750   0.83783   0.11422   Biso      1.000     H          0.391712  
         H14       1.0000    0.50910   0.92540   0.44470   Biso      1.000     H          0.139457  
         H15       1.0000    0.49850   0.33080   0.71520   Biso      1.000     H          0.137274  
         H16       1.0000    0.49090   0.07460   0.55530   Biso      1.000     H          0.139457  
         H17       1.0000    0.28960   0.26190   0.43780   Biso      1.000     H          0.153425  
         H18       1.0000    0.95720   0.23750   0.23730   Biso      1.000     H          0.144502  
         H19       1.0000    0.73240   0.27280   0.21670   Biso      1.000     H          0.108439  
         H20       1.0000    0.93080   0.44050   0.42720   Biso      1.000     H          0.148247  
         H21       1.0000    0.61953   0.25447   0.74959   Biso      1.000     H          0.39113   
         H22       1.0000    0.22750   0.66217   0.61422   Biso      1.000     H          0.391712  
         H23       1.0000    0.71040   0.73810   0.56220   Biso      1.000     H          0.153425  
         H24       1.0000    0.50910   0.57460   0.94470   Biso      1.000     H          0.139457  
         H25       1.0000    0.71040   0.76190   0.06220   Biso      1.000     H          0.153425  
         H26       1.0000    0.04280   0.73750   0.26270   Biso      1.000     H          0.144502  
         H27       1.0000    0.26760   0.77280   0.28330   Biso      1.000     H          0.10844   
         H28       1.0000    0.06920   0.94050   0.07280   Biso      1.000     H          0.148246  
         H29       1.0000    0.50150   0.83080   0.78480   Biso      1.000     H          0.137274  
         H30       1.0000    0.50150   0.66920   0.28480   Biso      1.000     H          0.137274  
         H31       1.0000    0.38047   0.75447   0.75041   Biso      1.000     H          0.39113   
         H32       1.0000    0.61953   0.24553   0.24959   Biso      1.000     H          0.39113   
         O1        1.0000    0.07640   0.44200   0.45930   Biso      1.000     O          -0.579818           
         O2        1.0000    0.27430   0.12390   0.30650   Biso      1.000     O          -0.526032           
         O3        1.0000    0.37780   0.01180   0.38190   Biso      1.000     O          -0.595606           
         O4        1.0000    0.58810   0.17710   0.72970   Biso      1.000     O          -0.421295           
         O5        1.0000    0.26820   0.41410   0.52350   Biso      1.000     O          -0.520123           
         O6        1.0000    0.38400   0.45780   0.67300   Biso      1.000     O          -0.582123           
         O7        1.0000    0.22750   0.91520   0.14170   Biso      1.000     O          -0.432489           
         O8        1.0000    0.61600   0.95780   0.82700   Biso      1.000     O          -0.582122           
         O9        1.0000    0.73180   0.91410   0.97650   Biso      1.000     O          -0.520123           
         O10       1.0000    0.26820   0.08590   0.02350   Biso      1.000     O          -0.520123           
         O11       1.0000    0.58810   0.32290   0.22970   Biso      1.000     O          -0.421295           
         O12       1.0000    0.37780   0.48820   0.88190   Biso      1.000     O          -0.595606           
         O13       1.0000    0.27430   0.37610   0.80650   Biso      1.000     O          -0.526032           
         O14       1.0000    0.07640   0.05800   0.95930   Biso      1.000     O          -0.579818           
         O15       1.0000    0.08850   0.15360   0.84270   Biso      1.000     O          -0.537735           
         O16       1.0000    0.85500   0.38230   0.60800   Biso      1.000     O          -0.57437  
         O17       1.0000    0.72880   0.35950   0.58300   Biso      1.000     O          -0.590842           
         O18       1.0000    0.77250   0.08480   0.85830   Biso      1.000     O          -0.432489           
         O19       1.0000    0.38400   0.04220   0.17300   Biso      1.000     O          -0.582122           
         O20       1.0000    0.85500   0.11770   0.10800   Biso      1.000     O          -0.57437  
         O21       1.0000    0.08850   0.34640   0.34270   Biso      1.000     O          -0.537735           
         O22       1.0000    0.77250   0.41520   0.35830   Biso      1.000     O          -0.432489           
         O23       1.0000    0.41190   0.67710   0.77030   Biso      1.000     O          -0.421296           
         O24       1.0000    0.62220   0.51180   0.11810   Biso      1.000     O          -0.595606           
         O25       1.0000    0.61600   0.54220   0.32700   Biso      1.000     O          -0.582122           
         O26       1.0000    0.73180   0.58590   0.47650   Biso      1.000     O          -0.520122           
         O27       1.0000    0.41190   0.82290   0.27030   Biso      1.000     O          -0.421296           
         O28       1.0000    0.62220   0.98820   0.61810   Biso      1.000     O          -0.595606           
         O29       1.0000    0.72570   0.87610   0.69350   Biso      1.000     O          -0.526032           
         O30       1.0000    0.92360   0.55800   0.54070   Biso      1.000     O          -0.579818           
         O31       1.0000    0.91150   0.65360   0.65730   Biso      1.000     O          -0.537735           
         O32       1.0000    0.14500   0.88230   0.89200   Biso      1.000     O          -0.57437  
         O33       1.0000    0.72880   0.14050   0.08300   Biso      1.000     O          -0.590841           
         O34       1.0000    0.27120   0.85950   0.91700   Biso      1.000     O          -0.590841           
         O35       1.0000    0.22750   0.58480   0.64170   Biso      1.000     O          -0.43249  
         O36       1.0000    0.72570   0.62390   0.19350   Biso      1.000     O          -0.526031           
         O37       1.0000    0.92360   0.94200   0.04070   Biso      1.000     O          -0.579818           
         O38       1.0000    0.91150   0.84640   0.15730   Biso      1.000     O          -0.537735           
         O39       1.0000    0.14500   0.61770   0.39200   Biso      1.000     O          -0.57437  
         O40       1.0000    0.27120   0.64050   0.41700   Biso      1.000     O          -0.590841           
         Zn1       1.0000    0.81790   0.48622   0.49818   Biso      1.000     Zn          0.948713  
         Zn2       1.0000    0.65449   0.44707   0.25374   Biso      1.000     Zn          0.952335  
         Zn3       1.0000    0.18210   0.98622   0.00182   Biso      1.000     Zn          0.948713  
         Zn4       1.0000    0.65449   0.05293   0.75374   Biso      1.000     Zn          0.952335  
         Zn5       1.0000    0.34551   0.94707   0.24626   Biso      1.000     Zn          0.952335  
         Zn6       1.0000    0.81790   0.01378   0.99818   Biso      1.000     Zn          0.948713  
         Zn7       1.0000    0.34551   0.55293   0.74626   Biso      1.000     Zn          0.952335  
         Zn8       1.0000    0.18210   0.51378   0.50182   Biso      1.000     Zn          0.948713 