
##########################################################################
#               Crystallographic Information Format file
#               Produced by PyCifRW module
#
#  This is a CIF file.  CIF has been adopted by the International
#  Union of Crystallography as the standard for data archiving and
#  transmission.
#
#  For information on this file format, follow the CIF links at
#  http://www.iucr.org
##########################################################################

data_image0

_cell_length_a                          8.3848
_cell_length_b                          17.2343
_cell_length_c                          17.2343
_cell_angle_alpha                       62.5774
_cell_angle_beta                        80.667
_cell_angle_gamma                       99.333
_symmetry_space_group_name_H-M          'P 1'
_symmetry_int_tables_number             1
loop_
  _symmetry_equiv_pos_as_xyz
         'x, y, z' 
loop_
  _atom_site_label
  _atom_site_occupancy
  _atom_site_fract_x
  _atom_site_fract_y
  _atom_site_fract_z
  _atom_site_thermal_displace_type
  _atom_site_B_iso_or_equiv
  _atom_site_type_symbol
  _atom_site_charge
         C1        1.0000    0.72730   0.43000   0.94780   Biso      1.000     C          -0.5142869999999999           
         C2        1.0000    0.98520   0.92520   0.67490   Biso      1.000     C          -0.169961           
         C3        1.0000    0.67510   0.94780   0.62220   Biso      1.000     C          -0.517101           
         C4        1.0000    0.96720   0.09270   0.29700   Biso      1.000     C          -0.516927           
         C5        1.0000    0.97880   0.04310   0.39320   Biso      1.000     C          0.161998  
         C6        1.0000    0.83800   0.01810   0.46330   Biso      1.000     C          -0.27689600000000003          
         C7        1.0000    0.83510   0.97490   0.55300   Biso      1.000     C          0.156712  
         C8        1.0000    0.98890   0.96250   0.57420   Biso      1.000     C          -0.058457           
         C9        1.0000    0.13070   0.98480   0.50650   Biso      1.000     C          0.082354  
         C10       1.0000    0.13070   0.02690   0.41420   Biso      1.000     C          -0.048601           
         C11       1.0000    0.20250   0.29650   0.02850   Biso      1.000     C          -0.294837           
         C12       1.0000    0.21420   0.19680   0.06770   Biso      1.000     C          0.634674  
         C13       1.0000    0.76280   0.19340   0.07480   Biso      1.000     C          0.63131   
         C14       1.0000    0.89950   0.26350   0.07410   Biso      1.000     C          -0.29131999999999997          
         C15       1.0000    0.52230   0.70150   0.97090   Biso      1.000     C          -0.30434  
         C16       1.0000    0.62610   0.80060   0.93320   Biso      1.000     C          0.626576  
         C17       1.0000    0.19510   0.81490   0.91840   Biso      1.000     C          0.63402   
         C18       1.0000    0.28560   0.74750   0.91520   Biso      1.000     C          -0.286019           
         C19       1.0000    0.22880   0.60050   0.05800   Biso      1.000     C          -0.15756199999999998          
         C20       1.0000    0.33360   0.51420   0.95520   Biso      1.000     C          -0.517654           
         C21       1.0000    0.06000   0.39990   0.92520   Biso      1.000     C          -0.17089200000000002          
         C22       1.0000    0.87450   0.61030   0.09270   Biso      1.000     C          -0.5166569999999999           
         C23       1.0000    0.93570   0.56370   0.04310   Biso      1.000     C          0.158355  
         C24       1.0000    0.81990   0.51860   0.01810   Biso      1.000     C          -0.27409  
         C25       1.0000    0.86020   0.47210   0.97490   Biso      1.000     C          0.158255  
         C26       1.0000    0.02640   0.46330   0.96250   Biso      1.000     C          -0.058413           
         C27       1.0000    0.28880   0.95520   0.53060   Biso      1.000     C          -0.518155           
         C28       1.0000    0.14590   0.50870   0.98480   Biso      1.000     C          0.08074400000000001           
         C29       1.0000    0.28680   0.05800   0.34150   Biso      1.000     C          -0.158053           
         C30       1.0000    0.11350   0.91840   0.26670   Biso      1.000     C          0.646072  
         C31       1.0000    0.90600   0.67500   0.29650   Biso      1.000     C          -0.29078899999999996          
         C32       1.0000    0.01740   0.73550   0.19680   Biso      1.000     C          0.629266  
         C33       1.0000    0.56940   0.73180   0.19340   Biso      1.000     C          0.626859  
         C34       1.0000    0.63600   0.66240   0.26350   Biso      1.000     C          -0.28397  
         C35       1.0000    0.82080   0.32760   0.70150   Biso      1.000     C          -0.30054000000000003          
         C36       1.0000    0.82550   0.26620   0.80060   Biso      1.000     C          0.6268239999999999  
         C37       1.0000    0.38020   0.26670   0.81490   Biso      1.000     C          0.634432  
         C38       1.0000    0.53810   0.33730   0.74750   Biso      1.000     C          -0.289876           
         C39       1.0000    0.62830   0.34150   0.60050   Biso      1.000     C          -0.15879100000000002          
         C40       1.0000    0.81940   0.53060   0.51420   Biso      1.000     C          -0.518406           
         C41       1.0000    0.66010   0.67490   0.39990   Biso      1.000     C          -0.167968           
         C42       1.0000    0.29730   0.62220   0.43000   Biso      1.000     C          -0.514688           
         C43       1.0000    0.26420   0.29700   0.61030   Biso      1.000     C          -0.517584           
         C44       1.0000    0.37200   0.39320   0.56370   Biso      1.000     C          0.163044  
         C45       1.0000    0.30130   0.46330   0.51860   Biso      1.000     C          -0.27276999999999996          
         C46       1.0000    0.38810   0.55300   0.47210   Biso      1.000     C          0.15673499999999999           
         C47       1.0000    0.56310   0.57420   0.46330   Biso      1.000     C          -0.058078           
         C48       1.0000    0.63720   0.50650   0.50870   Biso      1.000     C          0.08153200000000001           
         C49       1.0000    0.54490   0.41420   0.55890   Biso      1.000     C          -0.04967  
         C50       1.0000    0.23100   0.02850   0.67500   Biso      1.000     C          -0.29636599999999996          
         C51       1.0000    0.28190   0.06770   0.73550   Biso      1.000     C          0.628047  
         C52       1.0000    0.83760   0.07480   0.73180   Biso      1.000     C          0.624771  
         C53       1.0000    0.97360   0.07410   0.66240   Biso      1.000     C          -0.282727           
         C54       1.0000    0.49320   0.97090   0.32760   Biso      1.000     C          -0.304247           
         C55       1.0000    0.55930   0.93320   0.26620   Biso      1.000     C          0.631092  
         C56       1.0000    0.20080   0.91520   0.33730   Biso      1.000     C          -0.291844           
         C57       1.0000    0.10380   0.55890   0.02690   Biso      1.000     C          -0.048996           
         Co1       1.0000    0.34499   0.77937   0.06674   Biso      1.000     Co          0.778066  
         Co2       1.0000    0.03645   0.21929   0.93323   Biso      1.000     Co          0.92714   
         Co3       1.0000    0.41173   0.06674   0.15389   Biso      1.000     Co          0.943132  
         Co4       1.0000    0.96968   0.93323   0.84748   Biso      1.000     Co          0.9252299999999999  
         Co5       1.0000    0.56562   0.15389   0.77937   Biso      1.000     Co          0.7776069999999999  
         Co6       1.0000    0.81716   0.84748   0.21929   Biso      1.000     Co          0.934951  
         H1        1.0000    0.74640   0.69100   0.42530   Biso      1.000     H          0.122675  
         H2        1.0000    0.54130   0.68430   0.92460   Biso      1.000     H          0.12219100000000001           
         H3        1.0000    0.55520   0.66010   0.02280   Biso      1.000     H          0.145477  
         H4        1.0000    0.85190   0.31110   0.07430   Biso      1.000     H          0.123326  
         H5        1.0000    0.93230   0.23480   0.13000   Biso      1.000     H          0.14208099999999999           
         H6        1.0000    0.20440   0.31430   0.07420   Biso      1.000     H          0.118922  
         H7        1.0000    0.29830   0.33690   0.97650   Biso      1.000     H          0.14273   
         H8        1.0000    0.98220   0.05630   0.26930   Biso      1.000     H          0.180784  
         H9        1.0000    0.85900   0.10430   0.29690   Biso      1.000     H          0.16150599999999998           
         H10       1.0000    0.58360   0.71230   0.39650   Biso      1.000     H          0.120691  
         H11       1.0000    0.05300   0.14950   0.26350   Biso      1.000     H          0.165972  
         H12       1.0000    0.69310   0.97170   0.66140   Biso      1.000     H          0.171328  
         H13       1.0000    0.63630   0.88260   0.65750   Biso      1.000     H          0.168185  
         H14       1.0000    0.74050   0.03160   0.44830   Biso      1.000     H          0.12011500000000001           
         H15       1.0000    0.21260   0.70420   0.90640   Biso      1.000     H          0.126609  
         H16       1.0000    0.36210   0.52620   0.89370   Biso      1.000     H          0.169949  
         H17       1.0000    0.30440   0.56220   0.07430   Biso      1.000     H          0.11156400000000001           
         H18       1.0000    0.59240   0.97120   0.59250   Biso      1.000     H          0.167295  
         H19       1.0000    0.40120   0.56220   0.95910   Biso      1.000     H          0.159343  
         H20       1.0000    0.35390   0.45750   0.99450   Biso      1.000     H          0.158602  
         H21       1.0000    0.17170   0.42530   0.88370   Biso      1.000     H          0.123748  
         H22       1.0000    0.98010   0.39650   0.89120   Biso      1.000     H          0.12009600000000001           
         H23       1.0000    0.62120   0.43630   0.97120   Biso      1.000     H          0.16508399999999998           
         H24       1.0000    0.75370   0.45990   0.88260   Biso      1.000     H          0.168034  
         H25       1.0000    0.72140   0.36690   0.97170   Biso      1.000     H          0.17136300000000002           
         H26       1.0000    0.90350   0.58700   0.14950   Biso      1.000     H          0.163917  
         H27       1.0000    0.92590   0.67440   0.05630   Biso      1.000     H          0.180444  
         H28       1.0000    0.75470   0.59880   0.10430   Biso      1.000     H          0.161958  
         H29       1.0000    0.70890   0.52010   0.03160   Biso      1.000     H          0.117547  
         H30       1.0000    0.16840   0.59580   0.11360   Biso      1.000     H          0.116426  
         H31       1.0000    0.87130   0.89120   0.71230   Biso      1.000     H          0.119924  
         H32       1.0000    0.38410   0.77920   0.86350   Biso      1.000     H          0.140873  
         H33       1.0000    0.34840   0.99450   0.54800   Biso      1.000     H          0.157779  
         H34       1.0000    0.18490   0.59250   0.43630   Biso      1.000     H          0.164904  
         H35       1.0000    0.96140   0.68660   0.33690   Biso      1.000     H          0.14265799999999998           
         H36       1.0000    0.89010   0.61150   0.31430   Biso      1.000     H          0.119     
         H37       1.0000    0.69750   0.63520   0.23480   Biso      1.000     H          0.140485  
         H38       1.0000    0.54080   0.61460   0.31110   Biso      1.000     H          0.121494  
         H39       1.0000    0.89510   0.31710   0.66010   Biso      1.000     H          0.143876  
         H40       1.0000    0.29380   0.65750   0.45990   Biso      1.000     H          0.168357  
         H41       1.0000    0.85700   0.39110   0.68430   Biso      1.000     H          0.12137   
         H42       1.0000    0.50840   0.38940   0.70420   Biso      1.000     H          0.12596   
         H43       1.0000    0.57260   0.29060   0.59580   Biso      1.000     H          0.116417  
         H44       1.0000    0.74220   0.36350   0.56220   Biso      1.000     H          0.111027  
         H45       1.0000    0.05540   0.88370   0.69100   Biso      1.000     H          0.124806  
         H46       1.0000    0.83900   0.47870   0.56220   Biso      1.000     H          0.159769  
         H47       1.0000    0.89640   0.54800   0.45750   Biso      1.000     H          0.15784700000000002           
         H48       1.0000    0.60490   0.35730   0.77920   Biso      1.000     H          0.143049  
         H49       1.0000    0.35450   0.66140   0.36690   Biso      1.000     H          0.171112  
         H50       1.0000    0.83590   0.58010   0.52620   Biso      1.000     H          0.170504  
         H51       1.0000    0.25150   0.26930   0.67440   Biso      1.000     H          0.180264  
         H52       1.0000    0.36030   0.95910   0.47870   Biso      1.000     H          0.15984   
         H53       1.0000    0.25580   0.89370   0.58010   Biso      1.000     H          0.170551  
         H54       1.0000    0.37870   0.07430   0.36350   Biso      1.000     H          0.113126  
         H55       1.0000    0.28200   0.11360   0.29060   Biso      1.000     H          0.11508399999999999           
         H56       1.0000    0.11900   0.90640   0.38940   Biso      1.000     H          0.127145  
         H57       1.0000    0.24760   0.86350   0.35730   Biso      1.000     H          0.143371  
         H58       1.0000    0.57800   0.02280   0.31710   Biso      1.000     H          0.143074  
         H59       1.0000    0.46590   0.92460   0.39110   Biso      1.000     H          0.12196800000000001           
         H60       1.0000    0.06230   0.13000   0.63520   Biso      1.000     H          0.140811  
         H61       1.0000    0.27860   0.07420   0.61150   Biso      1.000     H          0.11863599999999999           
         H62       1.0000    0.27480   0.97650   0.68660   Biso      1.000     H          0.145998  
         H63       1.0000    0.31650   0.26350   0.58700   Biso      1.000     H          0.16453399999999999           
         H64       1.0000    0.18880   0.44830   0.52010   Biso      1.000     H          0.116503  
         H65       1.0000    0.15590   0.29690   0.59880   Biso      1.000     H          0.16134400000000002           
         H66       1.0000    0.92620   0.07430   0.61460   Biso      1.000     H          0.12056300000000002           
         N1        1.0000    0.64040   0.30360   0.69760   Biso      1.000     N          -0.058565           
         N2        1.0000    0.74160   0.69500   0.30450   Biso      1.000     N          -0.055053           
         N3        1.0000    0.04660   0.00050   0.69500   Biso      1.000     N          -0.052213999999999997         
         N4        1.0000    0.33800   0.69760   0.99880   Biso      1.000     N          -0.060651           
         N5        1.0000    0.04610   0.30450   0.00050   Biso      1.000     N          -0.050864           
         N6        1.0000    0.33680   0.99880   0.30360   Biso      1.000     N          -0.07394099999999999          
         O1        1.0000    0.82310   0.02200   0.81580   Biso      1.000     O          -0.551953           
         O2        1.0000    0.46810   0.70230   0.16180   Biso      1.000     O          -0.512259           
         O3        1.0000    0.63890   0.81580   0.16220   Biso      1.000     O          -0.552217           
         O4        1.0000    0.94540   0.29820   0.82330   Biso      1.000     O          -0.571928           
         O5        1.0000    0.73230   0.18870   0.84310   Biso      1.000     O          -0.474204           
         O6        1.0000    0.27090   0.29670   0.84400   Biso      1.000     O          -0.564581           
         O7        1.0000    0.37320   0.18560   0.84270   Biso      1.000     O          -0.49743699999999996          
         O8        1.0000    0.42750   0.12300   0.70470   Biso      1.000     O          -0.539547           
         O9        1.0000    0.18780   0.03460   0.81190   Biso      1.000     O          -0.514638           
         O10       1.0000    0.76580   0.13590   0.70230   Biso      1.000     O          -0.510848           
         O11       1.0000    0.64720   0.87850   0.29820   Biso      1.000     O          -0.575317           
         O12       1.0000    0.21590   0.84270   0.97170   Biso      1.000     O          -0.498968           
         O13       1.0000    0.97420   0.85930   0.29670   Biso      1.000     O          -0.568335           
         O14       1.0000    0.18760   0.97170   0.18560   Biso      1.000     O          -0.544006           
         O15       1.0000    0.30450   0.17230   0.12300   Biso      1.000     O          -0.58153  
         O16       1.0000    0.15320   0.15350   0.03460   Biso      1.000     O          -0.519691           
         O17       1.0000    0.62990   0.16180   0.13590   Biso      1.000     O          -0.548397           
         O18       1.0000    0.80110   0.16220   0.02200   Biso      1.000     O          -0.557417           
         O19       1.0000    0.76870   0.82330   0.87850   Biso      1.000     O          -0.57197  
         O20       1.0000    0.57540   0.84310   0.96820   Biso      1.000     O          -0.472354           
         O21       1.0000    0.11490   0.84400   0.85930   Biso      1.000     O          -0.564782           
         O22       1.0000    0.99970   0.81190   0.15350   Biso      1.000     O          -0.51578  
         O23       1.0000    0.54360   0.96820   0.18870   Biso      1.000     O          -0.5144989999999999           
         O24       1.0000    0.13220   0.70470   0.17230   Biso      1.000     O          -0.540311 