
##########################################################################
#               Crystallographic Information Format file
#               Produced by PyCifRW module
#
#  This is a CIF file.  CIF has been adopted by the International
#  Union of Crystallography as the standard for data archiving and
#  transmission.
#
#  For information on this file format, follow the CIF links at
#  http://www.iucr.org
##########################################################################

data_image0

_cell_length_a                          8.3065
_cell_length_b                          17.1238
_cell_length_c                          17.1238
_cell_angle_alpha                       62.5624
_cell_angle_beta                        80.6947
_cell_angle_gamma                       99.3053
_symmetry_space_group_name_H-M          'P 1'
_symmetry_int_tables_number             1
loop_
  _symmetry_equiv_pos_as_xyz
         'x, y, z' 
loop_
  _atom_site_label
  _atom_site_occupancy
  _atom_site_fract_x
  _atom_site_fract_y
  _atom_site_fract_z
  _atom_site_thermal_displace_type
  _atom_site_B_iso_or_equiv
  _atom_site_type_symbol
  _atom_site_charge
         C1        1.0000    0.18140   0.47440   0.98950   Biso      1.000     C          -0.269302           
         C2        1.0000    0.17200   0.02660   0.44630   Biso      1.000     C          0.141748  
         C3        1.0000    0.01950   0.03690   0.42360   Biso      1.000     C          -0.057574           
         C4        1.0000    0.01800   0.07410   0.32430   Biso      1.000     C          -0.158309           
         C5        1.0000    0.17170   0.92180   0.26470   Biso      1.000     C          0.63843   
         C6        1.0000    0.03710   0.92520   0.33410   Biso      1.000     C          -0.293186           
         C7        1.0000    0.77480   0.96740   0.32410   Biso      1.000     C          -0.31612199999999996          
         C8        1.0000    0.72690   0.92990   0.25840   Biso      1.000     C          0.660852  
         C9        1.0000    0.48390   0.29240   0.03400   Biso      1.000     C          -0.299607           
         C10       1.0000    0.38440   0.19380   0.07160   Biso      1.000     C          0.614663  
         C11       1.0000    0.81480   0.18630   0.08180   Biso      1.000     C          0.6056279999999999  
         C12       1.0000    0.72240   0.24980   0.08620   Biso      1.000     C          -0.28444400000000003          
         C13       1.0000    0.17090   0.98950   0.53610   Biso      1.000     C          -0.268863           
         C14       1.0000    0.77370   0.39690   0.94140   Biso      1.000     C          -0.15258  
         C15       1.0000    0.28840   0.56930   0.05620   Biso      1.000     C          -0.516663           
         C16       1.0000    0.67520   0.49260   0.03800   Biso      1.000     C          -0.523163           
         C17       1.0000    0.86020   0.49190   0.01240   Biso      1.000     C          0.07964199999999999           
         C18       1.0000    0.90120   0.43910   0.97220   Biso      1.000     C          -0.047608           
         C19       1.0000    0.06960   0.43550   0.95780   Biso      1.000     C          0.15795399999999998           
         C20       1.0000    0.14540   0.52710   0.02660   Biso      1.000     C          0.14166700000000002           
         C21       1.0000    0.98260   0.53950   0.03690   Biso      1.000     C          -0.056044000000000004         
         C22       1.0000    0.94390   0.60160   0.07410   Biso      1.000     C          -0.160052           
         C23       1.0000    0.24990   0.81350   0.92180   Biso      1.000     C          0.636338  
         C24       1.0000    0.11190   0.74070   0.92520   Biso      1.000     C          -0.28791500000000003          
         C25       1.0000    0.80740   0.70850   0.96740   Biso      1.000     C          -0.319339           
         C26       1.0000    0.12160   0.37880   0.91520   Biso      1.000     C          -0.516469           
         C27       1.0000    0.02740   0.95780   0.60670   Biso      1.000     C          0.155881  
         C28       1.0000    0.87340   0.97220   0.58870   Biso      1.000     C          -0.047252999999999996         
         C29       1.0000    0.87260   0.01240   0.49570   Biso      1.000     C          0.07971900000000001           
         C30       1.0000    0.62850   0.73190   0.18630   Biso      1.000     C          0.6042649999999999  
         C31       1.0000    0.47260   0.66400   0.24980   Biso      1.000     C          -0.28023400000000004          
         C32       1.0000    0.37680   0.66170   0.39690   Biso      1.000     C          -0.154081           
         C33       1.0000    0.74280   0.70600   0.37880   Biso      1.000     C          -0.5141319999999999           
         C34       1.0000    0.71910   0.37450   0.56930   Biso      1.000     C          -0.512804           
         C35       1.0000    0.18260   0.46940   0.49260   Biso      1.000     C          -0.522076           
         C36       1.0000    0.36830   0.49570   0.49190   Biso      1.000     C          0.078543  
         C37       1.0000    0.46210   0.58870   0.43910   Biso      1.000     C          -0.046305           
         C38       1.0000    0.63410   0.60670   0.43550   Biso      1.000     C          0.15608699999999998           
         C39       1.0000    0.70700   0.53610   0.47440   Biso      1.000     C          -0.270377           
         C40       1.0000    0.61830   0.44630   0.52710   Biso      1.000     C          0.140194  
         C41       1.0000    0.44310   0.42360   0.53950   Biso      1.000     C          -0.054064999999999995         
         C42       1.0000    0.34230   0.32430   0.60160   Biso      1.000     C          -0.16289  
         C43       1.0000    0.43640   0.26470   0.81350   Biso      1.000     C          0.637599  
         C44       1.0000    0.37120   0.33410   0.74070   Biso      1.000     C          -0.29339299999999996          
         C45       1.0000    0.09890   0.32410   0.70850   Biso      1.000     C          -0.317306           
         C46       1.0000    0.98530   0.25840   0.81170   Biso      1.000     C          0.660118  
         C47       1.0000    0.51790   0.03400   0.67360   Biso      1.000     C          -0.29825999999999997          
         C48       1.0000    0.45600   0.07160   0.73460   Biso      1.000     C          0.6127520000000001  
         C49       1.0000    0.89660   0.08180   0.73190   Biso      1.000     C          0.607109  
         C50       1.0000    0.80860   0.08620   0.66400   Biso      1.000     C          -0.280619           
         C51       1.0000    0.71510   0.94140   0.66170   Biso      1.000     C          -0.151937           
         C52       1.0000    0.03680   0.91520   0.70600   Biso      1.000     C          -0.516087           
         C53       1.0000    0.34460   0.05620   0.37450   Biso      1.000     C          -0.517931           
         C54       1.0000    0.71320   0.03800   0.46940   Biso      1.000     C          -0.525867           
         C55       1.0000    0.79700   0.81170   0.92990   Biso      1.000     C          0.6601090000000001  
         C56       1.0000    0.19060   0.73460   0.19380   Biso      1.000     C          0.613745  
         C57       1.0000    0.19150   0.67360   0.29240   Biso      1.000     C          -0.296095           
         H1        1.0000    0.15640   0.41110   0.49580   Biso      1.000     H          0.165602  
         H2        1.0000    0.82400   0.55050   0.46420   Biso      1.000     H          0.119501  
         H3        1.0000    0.27350   0.98530   0.55050   Biso      1.000     H          0.119362  
         H4        1.0000    0.13140   0.11050   0.28570   Biso      1.000     H          0.1185    
         H5        1.0000    0.94400   0.11430   0.31050   Biso      1.000     H          0.11916900000000001           
         H6        1.0000    0.08710   0.92540   0.38140   Biso      1.000     H          0.125331  
         H7        1.0000    0.94670   0.86890   0.36270   Biso      1.000     H          0.137489  
         H8        1.0000    0.73240   0.91860   0.38720   Biso      1.000     H          0.12029400000000001           
         H9        1.0000    0.72260   0.01620   0.31680   Biso      1.000     H          0.137804  
         H10       1.0000    0.46470   0.30960   0.08060   Biso      1.000     H          0.11982999999999999           
         H11       1.0000    0.44800   0.33340   0.98230   Biso      1.000     H          0.143353  
         H12       1.0000    0.62350   0.21620   0.13840   Biso      1.000     H          0.14951099999999998           
         H13       1.0000    0.79380   0.29350   0.09570   Biso      1.000     H          0.13078499999999998           
         H14       1.0000    0.69630   0.43500   0.92520   Biso      1.000     H          0.11525099999999999           
         H15       1.0000    0.83300   0.40070   0.88550   Biso      1.000     H          0.120777  
         H16       1.0000    0.64950   0.04740   0.51480   Biso      1.000     H          0.15915   
         H17       1.0000    0.02690   0.32820   0.93270   Biso      1.000     H          0.170396  
         H18       1.0000    0.21360   0.35620   0.93640   Biso      1.000     H          0.16588599999999998           
         H19       1.0000    0.36280   0.53050   0.07290   Biso      1.000     H          0.167755  
         H20       1.0000    0.35160   0.62880   0.00620   Biso      1.000     H          0.176945  
         H21       1.0000    0.23870   0.57470   0.10750   Biso      1.000     H          0.16458599999999998           
         H22       1.0000    0.65560   0.54480   0.98940   Biso      1.000     H          0.163271  
         H23       1.0000    0.60210   0.43780   0.04740   Biso      1.000     H          0.158434  
         H24       1.0000    0.65220   0.49580   0.09310   Biso      1.000     H          0.166195  
         H25       1.0000    0.28820   0.46420   0.98530   Biso      1.000     H          0.11838900000000001           
         H26       1.0000    0.02090   0.60380   0.11050   Biso      1.000     H          0.11788499999999999           
         H27       1.0000    0.82970   0.57520   0.11430   Biso      1.000     H          0.12066400000000001           
         H28       1.0000    0.16170   0.69320   0.92540   Biso      1.000     H          0.12399   
         H29       1.0000    0.07780   0.76840   0.86890   Biso      1.000     H          0.13576   
         H30       1.0000    0.81380   0.69420   0.91860   Biso      1.000     H          0.120375  
         H31       1.0000    0.70640   0.66700   0.01620   Biso      1.000     H          0.139218  
         H32       1.0000    0.15680   0.41640   0.84990   Biso      1.000     H          0.166568  
         H33       1.0000    0.64500   0.98940   0.46580   Biso      1.000     H          0.165324  
         H34       1.0000    0.74530   0.09310   0.41110   Biso      1.000     H          0.166434  
         H35       1.0000    0.35780   0.00620   0.36500   Biso      1.000     H          0.17676   
         H36       1.0000    0.16430   0.51480   0.43780   Biso      1.000     H          0.157306  
         H37       1.0000    0.11080   0.46580   0.54480   Biso      1.000     H          0.16437100000000002           
         H38       1.0000    0.66400   0.31780   0.57470   Biso      1.000     H          0.16372799999999998           
         H39       1.0000    0.72280   0.36500   0.62880   Biso      1.000     H          0.175968  
         H40       1.0000    0.83230   0.39660   0.53050   Biso      1.000     H          0.16661700000000002           
         H41       1.0000    0.85740   0.70740   0.35620   Biso      1.000     H          0.166054  
         H42       1.0000    0.41710   0.28570   0.60380   Biso      1.000     H          0.11822300000000001           
         H43       1.0000    0.69870   0.73910   0.32820   Biso      1.000     H          0.169325  
         H44       1.0000    0.43230   0.71380   0.40070   Biso      1.000     H          0.121064  
         H45       1.0000    0.26130   0.63980   0.43500   Biso      1.000     H          0.11620799999999999           
         H46       1.0000    0.50030   0.61080   0.29350   Biso      1.000     H          0.129198  
         H47       1.0000    0.40730   0.64540   0.21620   Biso      1.000     H          0.147602  
         H48       1.0000    0.34620   0.10750   0.31780   Biso      1.000     H          0.165432  
         H49       1.0000    0.15510   0.60980   0.30960   Biso      1.000     H          0.11949100000000001           
         H50       1.0000    0.25450   0.31050   0.57520   Biso      1.000     H          0.1226    
         H51       1.0000    0.11460   0.68430   0.33340   Biso      1.000     H          0.142071  
         H52       1.0000    0.30940   0.36270   0.76840   Biso      1.000     H          0.138423  
         H53       1.0000    0.43570   0.07290   0.39660   Biso      1.000     H          0.168178  
         H54       1.0000    0.15000   0.93640   0.70740   Biso      1.000     H          0.166427  
         H55       1.0000    0.00670   0.84990   0.73370   Biso      1.000     H          0.166791  
         H56       1.0000    0.46850   0.38140   0.69320   Biso      1.000     H          0.12523399999999998           
         H57       1.0000    0.71850   0.88550   0.71380   Biso      1.000     H          0.120322  
         H58       1.0000    0.62150   0.92520   0.63980   Biso      1.000     H          0.11621500000000001           
         H59       1.0000    0.95960   0.93270   0.73910   Biso      1.000     H          0.16987   
         H60       1.0000    0.76190   0.13840   0.64540   Biso      1.000     H          0.147751  
         H61       1.0000    0.43030   0.98230   0.68430   Biso      1.000     H          0.14240999999999998           
         H62       1.0000    0.54530   0.08060   0.60980   Biso      1.000     H          0.12029200000000001           
         H63       1.0000    0.03940   0.31680   0.66700   Biso      1.000     H          0.13897400000000001           
         H64       1.0000    0.11960   0.38720   0.69420   Biso      1.000     H          0.120551  
         H65       1.0000    0.88950   0.09570   0.61080   Biso      1.000     H          0.129773  
         H66       1.0000    0.74040   0.73370   0.41640   Biso      1.000     H          0.165851  
         N1        1.0000    0.95870   0.69730   0.00180   Biso      1.000     N          -0.019074           
         N2        1.0000    0.66780   0.29930   0.00430   Biso      1.000     N          -0.060347000000000005         
         N3        1.0000    0.96050   0.00180   0.30090   Biso      1.000     N          -0.019742           
         N4        1.0000    0.67210   0.00430   0.69640   Biso      1.000     N          -0.063639           
         N5        1.0000    0.26140   0.30090   0.69730   Biso      1.000     N          -0.021574           
         N6        1.0000    0.36850   0.69640   0.29930   Biso      1.000     N          -0.062237           
         Ni1       1.0000    0.97436   0.78266   0.06316   Biso      1.000     Ni          0.868236  
         Ni2       1.0000    0.44232   0.84470   0.21825   Biso      1.000     Ni          0.769188  
         Ni3       1.0000    0.19170   0.15418   0.78266   Biso      1.000     Ni          0.871199  
         Ni4       1.0000    0.59762   0.93705   0.84470   Biso      1.000     Ni          0.769415  
         Ni5       1.0000    0.03752   0.06316   0.15418   Biso      1.000     Ni          0.869886  
         Ni6       1.0000    0.66057   0.21825   0.93705   Biso      1.000     Ni          0.768166  
         O1        1.0000    0.63800   0.82010   0.15360   Biso      1.000     O          -0.503013           
         O2        1.0000    0.74070   0.70480   0.15140   Biso      1.000     O          -0.536762           
         O3        1.0000    0.53850   0.29450   0.84540   Biso      1.000     O          -0.5284770000000001           
         O4        1.0000    0.36500   0.18310   0.84350   Biso      1.000     O          -0.530972           
         O5        1.0000    0.87630   0.29300   0.83070   Biso      1.000     O          -0.558271           
         O6        1.0000    0.01060   0.18840   0.85120   Biso      1.000     O          -0.487019           
         O7        1.0000    0.47560   0.03690   0.81390   Biso      1.000     O          -0.47331000000000006          
         O8        1.0000    0.36580   0.12580   0.70420   Biso      1.000     O          -0.5562739999999999           
         O9        1.0000    0.81790   0.02630   0.82010   Biso      1.000     O          -0.503441           
         O10       1.0000    0.03590   0.14380   0.70480   Biso      1.000     O          -0.539167           
         O11       1.0000    0.24400   0.86010   0.29450   Biso      1.000     O          -0.530033           
         O12       1.0000    0.58330   0.87630   0.29300   Biso      1.000     O          -0.5589149999999999           
         O13       1.0000    0.07000   0.70420   0.17000   Biso      1.000     O          -0.555974           
         O14       1.0000    0.82220   0.96040   0.18840   Biso      1.000     O          -0.487417           
         O15       1.0000    0.43870   0.14920   0.03690   Biso      1.000     O          -0.474758           
         O16       1.0000    0.24000   0.17000   0.12580   Biso      1.000     O          -0.555689           
         O17       1.0000    0.79160   0.15360   0.02630   Biso      1.000     O          -0.5039239999999999           
         O18       1.0000    0.89210   0.15140   0.14380   Biso      1.000     O          -0.537632           
         O19       1.0000    0.38390   0.84540   0.86010   Biso      1.000     O          -0.530233           
         O20       1.0000    0.20850   0.84350   0.97340   Biso      1.000     O          -0.530088           
         O21       1.0000    0.70700   0.83070   0.87630   Biso      1.000     O          -0.558513           
         O22       1.0000    0.86180   0.85120   0.96040   Biso      1.000     O          -0.48666899999999996          
         O23       1.0000    0.18190   0.97340   0.18310   Biso      1.000     O          -0.531462           
         O24       1.0000    0.28950   0.81390   0.14920   Biso      1.000     O          -0.474421 