
##########################################################################
#               Crystallographic Information Format file
#               Produced by PyCifRW module
#
#  This is a CIF file.  CIF has been adopted by the International
#  Union of Crystallography as the standard for data archiving and
#  transmission.
#
#  For information on this file format, follow the CIF links at
#  http://www.iucr.org
##########################################################################

data_image0

_cell_length_a                          9.5741
_cell_length_b                          14.5044
_cell_length_c                          13.7329
_cell_angle_alpha                       90
_cell_angle_beta                        100.582
_cell_angle_gamma                       90
_symmetry_space_group_name_H-M          'P 1'
_symmetry_int_tables_number             1
loop_
  _symmetry_equiv_pos_as_xyz
         'x, y, z' 
loop_
  _atom_site_label
  _atom_site_occupancy
  _atom_site_fract_x
  _atom_site_fract_y
  _atom_site_fract_z
  _atom_site_thermal_displace_type
  _atom_site_B_iso_or_equiv
  _atom_site_type_symbol
  _atom_site_charge
         C1        1.0000    0.51430   0.56040   0.08070   Biso      1.000     C          0.025819  
         C2        1.0000    0.51360   0.40410   0.01510   Biso      1.000     C          -0.023956           
         C3        1.0000    0.52810   0.30280   0.03360   Biso      1.000     C          0.541323  
         C4        1.0000    0.53900   0.61730   0.17490   Biso      1.000     C          0.563853  
         C5        1.0000    0.53020   0.46490   0.09550   Biso      1.000     C          -0.081926           
         C6        1.0000    0.14500   0.01280   0.03700   Biso      1.000     C          0.026068  
         C7        1.0000    0.85500   0.98720   0.96300   Biso      1.000     C          0.025211  
         C8        1.0000    0.89810   0.45640   0.54550   Biso      1.000     C          -0.022031           
         C9        1.0000    0.79350   0.40780   0.59810   Biso      1.000     C          0.559716  
         C10       1.0000    0.04270   0.44360   0.58000   Biso      1.000     C          -0.095756           
         C11       1.0000    0.29780   0.47130   0.58300   Biso      1.000     C          0.551982  
         C12       1.0000    0.51360   0.09590   0.51510   Biso      1.000     C          -0.023638           
         C13       1.0000    0.29780   0.02870   0.08300   Biso      1.000     C          0.551455  
         C14       1.0000    0.52810   0.19720   0.53360   Biso      1.000     C          0.541873  
         C15       1.0000    0.53020   0.03510   0.59550   Biso      1.000     C          -0.082787           
         C16       1.0000    0.14500   0.48720   0.53700   Biso      1.000     C          0.025963  
         C17       1.0000    0.51430   0.93960   0.58070   Biso      1.000     C          0.026132  
         C18       1.0000    0.10190   0.95640   0.95450   Biso      1.000     C          -0.022291           
         C19       1.0000    0.20650   0.90780   0.90190   Biso      1.000     C          0.558817  
         C20       1.0000    0.95730   0.94360   0.92000   Biso      1.000     C          -0.09538  
         C21       1.0000    0.70220   0.97130   0.91700   Biso      1.000     C          0.553266  
         C22       1.0000    0.48640   0.59590   0.98490   Biso      1.000     C          -0.024078           
         C23       1.0000    0.47190   0.69720   0.96640   Biso      1.000     C          0.541677  
         C24       1.0000    0.46100   0.38270   0.82510   Biso      1.000     C          0.563758  
         C25       1.0000    0.46980   0.53510   0.90450   Biso      1.000     C          -0.082373           
         C26       1.0000    0.53900   0.88270   0.67490   Biso      1.000     C          0.564009  
         C27       1.0000    0.04270   0.05640   0.08000   Biso      1.000     C          -0.095307           
         C28       1.0000    0.48570   0.43960   0.91930   Biso      1.000     C          0.025797  
         C29       1.0000    0.47190   0.80280   0.46640   Biso      1.000     C          0.541877  
         C30       1.0000    0.46980   0.96490   0.40450   Biso      1.000     C          -0.081825           
         C31       1.0000    0.10190   0.54360   0.45450   Biso      1.000     C          -0.022065           
         C32       1.0000    0.20650   0.59220   0.40190   Biso      1.000     C          0.559727  
         C33       1.0000    0.89810   0.04360   0.04550   Biso      1.000     C          -0.017063           
         C34       1.0000    0.46100   0.11730   0.32510   Biso      1.000     C          0.561904  
         C35       1.0000    0.95730   0.55640   0.42000   Biso      1.000     C          -0.095627           
         C36       1.0000    0.85500   0.51280   0.46300   Biso      1.000     C          0.026042  
         C37       1.0000    0.48570   0.06040   0.41930   Biso      1.000     C          0.026212  
         C38       1.0000    0.70220   0.52870   0.41700   Biso      1.000     C          0.551889  
         C39       1.0000    0.48640   0.90410   0.48490   Biso      1.000     C          -0.023908           
         C40       1.0000    0.79350   0.09220   0.09810   Biso      1.000     C          0.563988  
         H1        1.0000    0.55210   0.05830   0.65960   Biso      1.000     H          0.146303  
         H2        1.0000    0.92830   0.59550   0.36640   Biso      1.000     H          0.144056  
         H3        1.0000    0.92830   0.90450   0.86640   Biso      1.000     H          0.143404  
         H4        1.0000    0.44790   0.55830   0.84040   Biso      1.000     H          0.146269  
         H5        1.0000    0.07170   0.40450   0.63360   Biso      1.000     H          0.14403   
         H6        1.0000    0.44790   0.94170   0.34040   Biso      1.000     H          0.146416  
         H7        1.0000    0.07170   0.09550   0.13360   Biso      1.000     H          0.144691  
         H8        1.0000    0.55210   0.44170   0.15960   Biso      1.000     H          0.146407  
         O1        1.0000    0.63620   0.47030   0.35820   Biso      1.000     O          -0.33846  
         O2        1.0000    0.54130   0.27785   0.12600   Biso      1.000     O          -0.462211           
         O3        1.0000    0.43180   0.61970   0.21730   Biso      1.000     O          -0.48281  
         O4        1.0000    0.66800   0.06040   0.08330   Biso      1.000     O          -0.488804           
         O5        1.0000    0.16770   0.84290   0.84710   Biso      1.000     O          -0.353379           
         O6        1.0000    0.64950   0.89500   0.93790   Biso      1.000     O          -0.453666           
         O7        1.0000    0.34310   0.35050   0.79430   Biso      1.000     O          -0.364309           
         O8        1.0000    0.65690   0.64950   0.20570   Biso      1.000     O          -0.363849           
         O9        1.0000    0.35050   0.10500   0.06210   Biso      1.000     O          -0.451124           
         O10       1.0000    0.33200   0.56040   0.41670   Biso      1.000     O          -0.472039           
         O11       1.0000    0.56820   0.11970   0.28270   Biso      1.000     O          -0.477586           
         O12       1.0000    0.45870   0.77785   0.37400   Biso      1.000     O          -0.467328           
         O13       1.0000    0.83230   0.15710   0.15290   Biso      1.000     O          -0.39606  
         O14       1.0000    0.63620   0.02970   0.85820   Biso      1.000     O          -0.335323           
         O15       1.0000    0.47210   0.75110   0.03550   Biso      1.000     O          -0.333214           
         O16       1.0000    0.16770   0.65710   0.34710   Biso      1.000     O          -0.355944           
         O17       1.0000    0.33200   0.93960   0.91670   Biso      1.000     O          -0.471264           
         O18       1.0000    0.56820   0.38030   0.78270   Biso      1.000     O          -0.482737           
         O19       1.0000    0.45870   0.72215   0.87400   Biso      1.000     O          -0.466806           
         O20       1.0000    0.66800   0.43960   0.58330   Biso      1.000     O          -0.472134           
         O21       1.0000    0.43180   0.88030   0.71730   Biso      1.000     O          -0.48299  
         O22       1.0000    0.83230   0.34290   0.65290   Biso      1.000     O          -0.355846           
         O23       1.0000    0.35050   0.39500   0.56210   Biso      1.000     O          -0.453879           
         O24       1.0000    0.65690   0.85050   0.70570   Biso      1.000     O          -0.364491           
         O25       1.0000    0.54130   0.22215   0.62600   Biso      1.000     O          -0.467254           
         O26       1.0000    0.47210   0.74890   0.53550   Biso      1.000     O          -0.333425           
         O27       1.0000    0.52790   0.24890   0.96450   Biso      1.000     O          -0.328913           
         O28       1.0000    0.36380   0.52970   0.64180   Biso      1.000     O          -0.339408           
         O29       1.0000    0.52790   0.25110   0.46450   Biso      1.000     O          -0.332805           
         O30       1.0000    0.34310   0.14950   0.29430   Biso      1.000     O          -0.361327           
         O31       1.0000    0.64950   0.60500   0.43790   Biso      1.000     O          -0.454029           
         O32       1.0000    0.36380   0.97030   0.14180   Biso      1.000     O          -0.335889           
         Zn1       1.0000    0.53768   0.35793   0.63953   Biso      1.000     Zn          0.936597  
         Zn2       1.0000    0.53768   0.14207   0.13953   Biso      1.000     Zn          0.940214  
         Zn3       1.0000    0.46232   0.85793   0.86047   Biso      1.000     Zn          0.936015  
         Zn4       1.0000    0.46232   0.64207   0.36047   Biso      1.000     Zn          0.936553 