
##########################################################################
#               Crystallographic Information Format file
#               Produced by PyCifRW module
#
#  This is a CIF file.  CIF has been adopted by the International
#  Union of Crystallography as the standard for data archiving and
#  transmission.
#
#  For information on this file format, follow the CIF links at
#  http://www.iucr.org
##########################################################################

data_image0

_cell_length_a                          8.307
_cell_length_b                          8.3825
_cell_length_c                          8.3825
_cell_angle_alpha                       62.1863
_cell_angle_beta                        60.2976
_cell_angle_gamma                       60.2976
_symmetry_space_group_name_H-M          'P 1'
_symmetry_int_tables_number             1
loop_
  _symmetry_equiv_pos_as_xyz
         'x, y, z' 
loop_
  _atom_site_label
  _atom_site_occupancy
  _atom_site_fract_x
  _atom_site_fract_y
  _atom_site_fract_z
  _atom_site_thermal_displace_type
  _atom_site_B_iso_or_equiv
  _atom_site_type_symbol
  _atom_site_charge
         C1        1.0000    0.28120   0.21880   0.71880   Biso      1.000     C          0.5738810000000001  
         C2        1.0000    0.71880   0.28120   0.78120   Biso      1.000     C          0.5738840000000001  
         C3        1.0000    0.28120   0.71880   0.21880   Biso      1.000     C          0.5738800000000001  
         C4        1.0000    0.71880   0.78120   0.28120   Biso      1.000     C          0.5738840000000001  
         C5        1.0000    0.81290   0.25000   0.25000   Biso      1.000     C          0.5202720000000001  
         C6        1.0000    0.18710   0.75000   0.75000   Biso      1.000     C          0.520269  
         Co1       1.0000    0.00000   0.00000   0.00000   Biso      1.000     Co          1.050924  
         Co2       1.0000    0.50000   0.50000   0.50000   Biso      1.000     Co          1.054235  
         H1        1.0000    0.79820   0.20180   0.70180   Biso      1.000     H          -0.0066   
         H2        1.0000    0.20180   0.79820   0.29820   Biso      1.000     H          -0.0066   
         H3        1.0000    0.79820   0.70180   0.20180   Biso      1.000     H          -0.006601999999999999         
         H4        1.0000    0.70100   0.25000   0.25000   Biso      1.000     H          0.024653  
         H5        1.0000    0.29900   0.75000   0.75000   Biso      1.000     H          0.024653  
         H6        1.0000    0.20180   0.29820   0.79820   Biso      1.000     H          -0.006601           
         O1        1.0000    0.21120   0.65620   0.65620   Biso      1.000     O          -0.454319           
         O2        1.0000    0.02360   0.84380   0.84380   Biso      1.000     O          -0.451191           
         O3        1.0000    0.77710   0.23490   0.90630   Biso      1.000     O          -0.45657200000000003          
         O4        1.0000    0.41830   0.26510   0.59370   Biso      1.000     O          -0.456661           
         O5        1.0000    0.58170   0.40630   0.73490   Biso      1.000     O          -0.45676700000000003          
         O6        1.0000    0.58170   0.73490   0.40630   Biso      1.000     O          -0.456663           
         O7        1.0000    0.22290   0.76510   0.09370   Biso      1.000     O          -0.45657  
         O8        1.0000    0.41830   0.59370   0.26510   Biso      1.000     O          -0.456768           
         O9        1.0000    0.77710   0.90630   0.23490   Biso      1.000     O          -0.45655500000000004          
         O10       1.0000    0.78880   0.34380   0.34380   Biso      1.000     O          -0.45432  
         O11       1.0000    0.22290   0.09370   0.76510   Biso      1.000     O          -0.45655500000000004          
         O12       1.0000    0.97640   0.15620   0.15620   Biso      1.000     O          -0.45119 