
##########################################################################
#               Crystallographic Information Format file
#               Produced by PyCifRW module
#
#  This is a CIF file.  CIF has been adopted by the International
#  Union of Crystallography as the standard for data archiving and
#  transmission.
#
#  For information on this file format, follow the CIF links at
#  http://www.iucr.org
##########################################################################

data_image0

_cell_length_a                          8.254
_cell_length_b                          18.006
_cell_length_c                          18.896
_cell_angle_alpha                       90
_cell_angle_beta                        90
_cell_angle_gamma                       90
_symmetry_space_group_name_H-M          'P 1'
_symmetry_int_tables_number             1
loop_
  _symmetry_equiv_pos_as_xyz
         'x, y, z' 
loop_
  _atom_site_label
  _atom_site_occupancy
  _atom_site_fract_x
  _atom_site_fract_y
  _atom_site_fract_z
  _atom_site_thermal_displace_type
  _atom_site_B_iso_or_equiv
  _atom_site_type_symbol
  _atom_site_charge
         C1        1.0000    0.11580   0.55550   0.26360   Biso      1.000     C          -0.088047           
         C2        1.0000    0.71910   0.60060   0.11850   Biso      1.000     C          0.095664  
         C3        1.0000    0.83850   0.58580   0.23750   Biso      1.000     C          0.176317  
         C4        1.0000    0.98680   0.55490   0.21680   Biso      1.000     C          -0.192825           
         C5        1.0000    0.09750   0.58370   0.33190   Biso      1.000     C          -0.025512           
         C6        1.0000    0.94680   0.61230   0.35250   Biso      1.000     C          -0.082798           
         C7        1.0000    0.81670   0.61220   0.30560   Biso      1.000     C          -0.17590899999999998          
         C8        1.0000    0.23700   0.58820   0.38280   Biso      1.000     C          0.550778  
         C9        1.0000    0.54390   0.58020   0.20510   Biso      1.000     C          -0.10783499999999999          
         C10       1.0000    0.48540   0.75790   0.89470   Biso      1.000     C          -0.051046           
         C11       1.0000    0.28260   0.73450   0.96480   Biso      1.000     C          0.107522  
         C12       1.0000    0.12200   0.85110   0.95220   Biso      1.000     C          0.17544300000000002           
         C13       1.0000    0.15290   0.92590   0.96390   Biso      1.000     C          -0.183337           
         C14       1.0000    0.02340   0.97310   0.97970   Biso      1.000     C          -0.095194           
         C15       1.0000    0.86600   0.94550   0.98390   Biso      1.000     C          -0.021236           
         C16       1.0000    0.83880   0.86990   0.97290   Biso      1.000     C          -0.08595900000000001          
         C17       1.0000    0.96610   0.82170   0.95720   Biso      1.000     C          -0.191728           
         C18       1.0000    0.38460   0.81810   0.89200   Biso      1.000     C          -0.10220800000000001          
         C19       1.0000    0.72750   0.99730   0.99980   Biso      1.000     C          0.554059  
         C20       1.0000    0.46270   0.58790   0.14190   Biso      1.000     C          -0.05566  
         C21       1.0000    0.45610   0.08020   0.79490   Biso      1.000     C          -0.10783499999999999          
         C22       1.0000    0.16120   0.36990   0.02710   Biso      1.000     C          -0.08595900000000001          
         C23       1.0000    0.13400   0.44550   0.01610   Biso      1.000     C          -0.021236           
         C24       1.0000    0.97660   0.47310   0.02030   Biso      1.000     C          -0.095194           
         C25       1.0000    0.84710   0.42590   0.03610   Biso      1.000     C          -0.183336           
         C26       1.0000    0.87800   0.35110   0.04780   Biso      1.000     C          0.17544300000000002           
         C27       1.0000    0.71740   0.23450   0.03520   Biso      1.000     C          0.107522  
         C28       1.0000    0.61540   0.31810   0.10800   Biso      1.000     C          -0.10222  
         C29       1.0000    0.53730   0.08790   0.85810   Biso      1.000     C          -0.05566  
         C30       1.0000    0.51460   0.25790   0.10530   Biso      1.000     C          -0.051033999999999996         
         C31       1.0000    0.18330   0.11220   0.69440   Biso      1.000     C          -0.17591099999999998          
         C32       1.0000    0.05320   0.11230   0.64750   Biso      1.000     C          -0.082798           
         C33       1.0000    0.90250   0.08370   0.66810   Biso      1.000     C          -0.025512           
         C34       1.0000    0.88420   0.05550   0.73640   Biso      1.000     C          -0.088047           
         C35       1.0000    0.01320   0.05490   0.78320   Biso      1.000     C          -0.192825           
         C36       1.0000    0.16150   0.08580   0.76250   Biso      1.000     C          0.176319  
         C37       1.0000    0.28090   0.10060   0.88150   Biso      1.000     C          0.095664  
         C38       1.0000    0.76300   0.08820   0.61720   Biso      1.000     C          0.550778  
         C39       1.0000    0.46270   0.08790   0.35810   Biso      1.000     C          -0.055663           
         C40       1.0000    0.54390   0.08020   0.29490   Biso      1.000     C          -0.107832           
         C41       1.0000    0.71910   0.10060   0.38150   Biso      1.000     C          0.095664  
         C42       1.0000    0.01320   0.55490   0.71680   Biso      1.000     C          -0.192825           
         C43       1.0000    0.88420   0.55550   0.76360   Biso      1.000     C          -0.088047           
         C44       1.0000    0.90250   0.58370   0.83190   Biso      1.000     C          -0.025512           
         C45       1.0000    0.05320   0.61230   0.85250   Biso      1.000     C          -0.082798           
         C46       1.0000    0.18330   0.61220   0.80560   Biso      1.000     C          -0.17591099999999998          
         C47       1.0000    0.76300   0.58820   0.88280   Biso      1.000     C          0.550778  
         C48       1.0000    0.51460   0.75790   0.39470   Biso      1.000     C          -0.051046           
         C49       1.0000    0.16150   0.58580   0.73750   Biso      1.000     C          0.176319  
         C50       1.0000    0.61540   0.81810   0.39200   Biso      1.000     C          -0.10220800000000001          
         C51       1.0000    0.87800   0.85110   0.45220   Biso      1.000     C          0.17544300000000002           
         C52       1.0000    0.84710   0.92590   0.46390   Biso      1.000     C          -0.183337           
         C53       1.0000    0.97660   0.97310   0.47970   Biso      1.000     C          -0.095194           
         C54       1.0000    0.13400   0.94550   0.48390   Biso      1.000     C          -0.021236           
         C55       1.0000    0.16120   0.86990   0.47290   Biso      1.000     C          -0.08595900000000001          
         C56       1.0000    0.03390   0.82170   0.45720   Biso      1.000     C          -0.191728           
         C57       1.0000    0.27250   0.99730   0.49980   Biso      1.000     C          0.554059  
         C58       1.0000    0.71740   0.73450   0.46480   Biso      1.000     C          0.107522  
         C59       1.0000    0.28090   0.60060   0.61850   Biso      1.000     C          0.095664  
         C60       1.0000    0.45610   0.58020   0.70510   Biso      1.000     C          -0.10783499999999999          
         C61       1.0000    0.53730   0.58790   0.64190   Biso      1.000     C          -0.05566  
         C62       1.0000    0.83850   0.08580   0.26250   Biso      1.000     C          0.176317  
         C63       1.0000    0.98680   0.05490   0.28320   Biso      1.000     C          -0.192825           
         C64       1.0000    0.11580   0.05550   0.23640   Biso      1.000     C          -0.088047           
         C65       1.0000    0.09750   0.08370   0.16810   Biso      1.000     C          -0.025512           
         C66       1.0000    0.94680   0.11230   0.14750   Biso      1.000     C          -0.082798           
         C67       1.0000    0.81670   0.11220   0.19440   Biso      1.000     C          -0.17590899999999998          
         C68       1.0000    0.23700   0.08820   0.11720   Biso      1.000     C          0.550778  
         C69       1.0000    0.48540   0.25790   0.60530   Biso      1.000     C          -0.051046           
         C70       1.0000    0.38460   0.31810   0.60800   Biso      1.000     C          -0.10220800000000001          
         C71       1.0000    0.28260   0.23450   0.53520   Biso      1.000     C          0.107522  
         C72       1.0000    0.12200   0.35110   0.54780   Biso      1.000     C          0.17544300000000002           
         C73       1.0000    0.15290   0.42590   0.53610   Biso      1.000     C          -0.183337           
         C74       1.0000    0.02340   0.47310   0.52030   Biso      1.000     C          -0.095194           
         C75       1.0000    0.86600   0.44550   0.51610   Biso      1.000     C          -0.021236           
         C76       1.0000    0.83880   0.36990   0.52710   Biso      1.000     C          -0.08595900000000001          
         C77       1.0000    0.96610   0.32170   0.54280   Biso      1.000     C          -0.191728           
         C78       1.0000    0.72750   0.49730   0.50020   Biso      1.000     C          0.554059  
         C79       1.0000    0.03390   0.32170   0.04280   Biso      1.000     C          -0.191728           
         C80       1.0000    0.27250   0.49730   0.00020   Biso      1.000     C          0.554059  
         Cd1       1.0000    0.48731   0.09337   0.02727   Biso      1.000     Cd          0.833349  
         Cd2       1.0000    0.51269   0.59337   0.97273   Biso      1.000     Cd          0.833349  
         Cd3       1.0000    0.51269   0.09337   0.52727   Biso      1.000     Cd          0.833349  
         Cd4       1.0000    0.48731   0.59337   0.47273   Biso      1.000     Cd          0.833349  
         H1        1.0000    0.26610   0.85130   0.47600   Biso      1.000     H          0.115524  
         H2        1.0000    0.21370   0.71070   0.99640   Biso      1.000     H          0.11504600000000001           
         H3        1.0000    0.39950   0.86080   0.86510   Biso      1.000     H          0.137507  
         H4        1.0000    0.58200   0.75250   0.86990   Biso      1.000     H          0.128942  
         H5        1.0000    0.71590   0.62980   0.31990   Biso      1.000     H          0.1264    
         H6        1.0000    0.93360   0.63150   0.39780   Biso      1.000     H          0.111312  
         H7        1.0000    0.21580   0.53700   0.24940   Biso      1.000     H          0.11773900000000001           
         H8        1.0000    0.99850   0.53420   0.17200   Biso      1.000     H          0.123346  
         H9        1.0000    0.81600   0.60850   0.09460   Biso      1.000     H          0.11465   
         H10       1.0000    0.49870   0.57190   0.24950   Biso      1.000     H          0.138248  
         H11       1.0000    0.35110   0.58490   0.13590   Biso      1.000     H          0.121308  
         H12       1.0000    0.05240   0.27130   0.04980   Biso      1.000     H          0.133158  
         H13       1.0000    0.26610   0.35130   0.02400   Biso      1.000     H          0.115524  
         H14       1.0000    0.05240   0.77130   0.45020   Biso      1.000     H          0.133158  
         H15       1.0000    0.25800   0.94440   0.96130   Biso      1.000     H          0.13350399999999998           
         H16       1.0000    0.78630   0.21070   0.00360   Biso      1.000     H          0.11504600000000001           
         H17       1.0000    0.60050   0.36080   0.13490   Biso      1.000     H          0.137508  
         H18       1.0000    0.41800   0.25250   0.13010   Biso      1.000     H          0.128942  
         H19       1.0000    0.28410   0.12980   0.68010   Biso      1.000     H          0.1264    
         H20       1.0000    0.06640   0.13150   0.60220   Biso      1.000     H          0.111312  
         H21       1.0000    0.78420   0.03700   0.75060   Biso      1.000     H          0.11773900000000001           
         H22       1.0000    0.00150   0.03420   0.82800   Biso      1.000     H          0.123346  
         H23       1.0000    0.18400   0.10850   0.90540   Biso      1.000     H          0.11465   
         H24       1.0000    0.50130   0.07190   0.75050   Biso      1.000     H          0.138248  
         H25       1.0000    0.64890   0.08490   0.86410   Biso      1.000     H          0.121308  
         H26       1.0000    0.95760   0.52330   0.01260   Biso      1.000     H          0.11292   
         H27       1.0000    0.04240   0.02330   0.98740   Biso      1.000     H          0.11292   
         H28       1.0000    0.74200   0.44440   0.03870   Biso      1.000     H          0.13350399999999998           
         H29       1.0000    0.94760   0.77130   0.95020   Biso      1.000     H          0.133158  
         H30       1.0000    0.73390   0.85130   0.97600   Biso      1.000     H          0.115524  
         H31       1.0000    0.95760   0.02330   0.48740   Biso      1.000     H          0.11292   
         H32       1.0000    0.74200   0.94440   0.46130   Biso      1.000     H          0.13350399999999998           
         H33       1.0000    0.78630   0.71070   0.49640   Biso      1.000     H          0.11504600000000001           
         H34       1.0000    0.60050   0.86080   0.36510   Biso      1.000     H          0.137507  
         H35       1.0000    0.41800   0.75250   0.36990   Biso      1.000     H          0.128942  
         H36       1.0000    0.28410   0.62980   0.81990   Biso      1.000     H          0.1264    
         H37       1.0000    0.06640   0.63150   0.89780   Biso      1.000     H          0.111312  
         H38       1.0000    0.78420   0.53700   0.74940   Biso      1.000     H          0.11773900000000001           
         H39       1.0000    0.00150   0.53420   0.67200   Biso      1.000     H          0.123346  
         H40       1.0000    0.50130   0.57190   0.74950   Biso      1.000     H          0.138248  
         H41       1.0000    0.64890   0.58490   0.63590   Biso      1.000     H          0.121308  
         H42       1.0000    0.94760   0.27130   0.54980   Biso      1.000     H          0.133158  
         H43       1.0000    0.18400   0.60850   0.59460   Biso      1.000     H          0.11465   
         H44       1.0000    0.04240   0.52330   0.51260   Biso      1.000     H          0.11292   
         H45       1.0000    0.35110   0.08490   0.36410   Biso      1.000     H          0.121308  
         H46       1.0000    0.49870   0.07190   0.25050   Biso      1.000     H          0.138247  
         H47       1.0000    0.81600   0.10850   0.40540   Biso      1.000     H          0.11465   
         H48       1.0000    0.73390   0.35130   0.52400   Biso      1.000     H          0.115524  
         H49       1.0000    0.21580   0.03700   0.25060   Biso      1.000     H          0.11774000000000001           
         H50       1.0000    0.93360   0.13150   0.10220   Biso      1.000     H          0.111312  
         H51       1.0000    0.99850   0.03420   0.32800   Biso      1.000     H          0.123346  
         H52       1.0000    0.58200   0.25250   0.63010   Biso      1.000     H          0.128942  
         H53       1.0000    0.39950   0.36080   0.63490   Biso      1.000     H          0.137507  
         H54       1.0000    0.21370   0.21070   0.50360   Biso      1.000     H          0.11504600000000001           
         H55       1.0000    0.25800   0.44440   0.53870   Biso      1.000     H          0.13350399999999998           
         H56       1.0000    0.71590   0.12980   0.18010   Biso      1.000     H          0.1264    
         N1        1.0000    0.74510   0.80320   0.43740   Biso      1.000     N          0.015856  
         N2        1.0000    0.70680   0.08720   0.31110   Biso      1.000     N          0.0206    
         N3        1.0000    0.58160   0.70600   0.44120   Biso      1.000     N          -0.274384           
         N4        1.0000    0.29320   0.58720   0.68890   Biso      1.000     N          0.0206    
         N5        1.0000    0.42490   0.60100   0.58890   Biso      1.000     N          -0.27592  
         N6        1.0000    0.25490   0.30320   0.56260   Biso      1.000     N          0.015856  
         N7        1.0000    0.41840   0.20600   0.55880   Biso      1.000     N          -0.274384           
         N8        1.0000    0.57510   0.10100   0.41110   Biso      1.000     N          -0.27592  
         N9        1.0000    0.29320   0.08720   0.81110   Biso      1.000     N          0.0206    
         N10       1.0000    0.41840   0.70600   0.94120   Biso      1.000     N          -0.274384           
         N11       1.0000    0.70680   0.58720   0.18890   Biso      1.000     N          0.0206    
         N12       1.0000    0.57510   0.60100   0.08890   Biso      1.000     N          -0.27592  
         N13       1.0000    0.74510   0.30320   0.06260   Biso      1.000     N          0.015857  
         N14       1.0000    0.58160   0.20600   0.05880   Biso      1.000     N          -0.274386           
         N15       1.0000    0.42490   0.10100   0.91110   Biso      1.000     N          -0.27592  
         N16       1.0000    0.25490   0.80320   0.93740   Biso      1.000     N          0.015856  
         O1        1.0000    0.78520   0.61770   0.94260   Biso      1.000     O          -0.558036           
         O2        1.0000    0.62680   0.56120   0.86390   Biso      1.000     O          -0.560656           
         O3        1.0000    0.58680   0.47200   0.48900   Biso      1.000     O          -0.561104           
         O4        1.0000    0.75830   0.56610   0.49840   Biso      1.000     O          -0.569797           
         O5        1.0000    0.21480   0.11770   0.05740   Biso      1.000     O          -0.558037           
         O6        1.0000    0.37320   0.06120   0.13610   Biso      1.000     O          -0.560656           
         O7        1.0000    0.58680   0.97200   0.01100   Biso      1.000     O          -0.561104           
         O8        1.0000    0.37320   0.56120   0.36390   Biso      1.000     O          -0.560656           
         O9        1.0000    0.21480   0.61770   0.44260   Biso      1.000     O          -0.558036           
         O10       1.0000    0.41320   0.47200   0.98900   Biso      1.000     O          -0.561104           
         O11       1.0000    0.24170   0.56610   0.99840   Biso      1.000     O          -0.569797           
         O12       1.0000    0.78520   0.11770   0.55740   Biso      1.000     O          -0.558036           
         O13       1.0000    0.62680   0.06120   0.63610   Biso      1.000     O          -0.560656           
         O14       1.0000    0.24170   0.06610   0.50160   Biso      1.000     O          -0.569797           
         O15       1.0000    0.75830   0.06610   0.00160   Biso      1.000     O          -0.569797           
         O16       1.0000    0.41320   0.97200   0.51100   Biso      1.000     O          -0.561104 