
##########################################################################
#               Crystallographic Information Format file
#               Produced by PyCifRW module
#
#  This is a CIF file.  CIF has been adopted by the International
#  Union of Crystallography as the standard for data archiving and
#  transmission.
#
#  For information on this file format, follow the CIF links at
#  http://www.iucr.org
##########################################################################

data_image0

_cell_length_a                          7.9626
_cell_length_b                          12.1331
_cell_length_c                          13.3182
_cell_angle_alpha                       111.951
_cell_angle_beta                        104.938
_cell_angle_gamma                       91.576
_symmetry_space_group_name_H-M          'P 1'
_symmetry_int_tables_number             1
loop_
  _symmetry_equiv_pos_as_xyz
         'x, y, z' 
loop_
  _atom_site_label
  _atom_site_occupancy
  _atom_site_fract_x
  _atom_site_fract_y
  _atom_site_fract_z
  _atom_site_thermal_displace_type
  _atom_site_B_iso_or_equiv
  _atom_site_type_symbol
  _atom_site_charge
         C1        1.0000    0.36210   0.63230   0.77210   Biso      1.000     C          -0.373837           
         C2        1.0000    0.53290   0.38170   0.72250   Biso      1.000     C          0.549886  
         C3        1.0000    0.14440   0.21620   0.40920   Biso      1.000     C          -0.042834           
         C4        1.0000    0.20340   0.16370   0.30400   Biso      1.000     C          -0.361362           
         C5        1.0000    0.05080   0.09220   0.20350   Biso      1.000     C          0.73107   
         C6        1.0000    0.57380   0.18580   0.72850   Biso      1.000     C          -0.041683           
         C7        1.0000    0.46670   0.16420   0.80010   Biso      1.000     C          -0.367028           
         C8        1.0000    0.55580   0.09470   0.86690   Biso      1.000     C          0.727582  
         C9        1.0000    0.49940   0.57890   0.71480   Biso      1.000     C          -0.049128           
         C10       1.0000    0.40490   0.76510   0.84260   Biso      1.000     C          0.7403609999999999  
         C11       1.0000    0.66380   0.60320   0.44480   Biso      1.000     C          0.555027  
         C12       1.0000    0.63600   0.79820   0.43300   Biso      1.000     C          0.55656   
         C13       1.0000    0.46710   0.61830   0.27750   Biso      1.000     C          0.549886  
         C14       1.0000    0.85560   0.78380   0.59080   Biso      1.000     C          -0.042834           
         C15       1.0000    0.79660   0.83630   0.69600   Biso      1.000     C          -0.361362           
         C16       1.0000    0.94920   0.90780   0.79650   Biso      1.000     C          0.73107   
         C17       1.0000    0.42620   0.81420   0.27150   Biso      1.000     C          -0.041683           
         C18       1.0000    0.53330   0.83580   0.19990   Biso      1.000     C          -0.367028           
         C19       1.0000    0.44420   0.90530   0.13310   Biso      1.000     C          0.727582  
         C20       1.0000    0.50060   0.42110   0.28520   Biso      1.000     C          -0.049128           
         C21       1.0000    0.63790   0.36770   0.22790   Biso      1.000     C          -0.373837           
         C22       1.0000    0.59510   0.23490   0.15740   Biso      1.000     C          0.7403609999999999  
         C23       1.0000    0.36400   0.20180   0.56700   Biso      1.000     C          0.556559  
         C24       1.0000    0.33620   0.39680   0.55520   Biso      1.000     C          0.555027  
         Gd1       1.0000    0.74870   0.98128   0.01058   Biso      1.000     Gd          2.05565   
         Gd2       1.0000    0.25130   0.01872   0.98942   Biso      1.000     Gd          2.0556509999999997  
         H1        1.0000    0.65240   0.40850   0.17990   Biso      1.000     H          0.153609  
         H2        1.0000    0.07650   0.15290   0.41570   Biso      1.000     H          0.114337  
         H3        1.0000    0.06790   0.27520   0.40130   Biso      1.000     H          0.11333199999999999           
         H4        1.0000    0.29150   0.11230   0.31480   Biso      1.000     H          0.157494  
         H5        1.0000    0.25600   0.22790   0.29040   Biso      1.000     H          0.14816600000000002           
         H6        1.0000    0.58630   0.10950   0.67350   Biso      1.000     H          0.11534100000000001           
         H7        1.0000    0.69010   0.22600   0.77640   Biso      1.000     H          0.115627  
         H8        1.0000    0.35270   0.12020   0.75140   Biso      1.000     H          0.156432  
         H9        1.0000    0.44820   0.24080   0.85180   Biso      1.000     H          0.15670699999999999           
         H10       1.0000    0.61390   0.60140   0.77030   Biso      1.000     H          0.11073499999999999           
         H11       1.0000    0.50330   0.61080   0.65840   Biso      1.000     H          0.10511600000000001           
         H12       1.0000    0.34760   0.59150   0.82010   Biso      1.000     H          0.153609  
         H13       1.0000    0.74910   0.38280   0.28550   Biso      1.000     H          0.151205  
         H14       1.0000    0.38610   0.39860   0.22970   Biso      1.000     H          0.11073499999999999           
         H15       1.0000    0.92350   0.84710   0.58430   Biso      1.000     H          0.114337  
         H16       1.0000    0.93210   0.72480   0.59870   Biso      1.000     H          0.11333199999999999           
         H17       1.0000    0.70850   0.88770   0.68520   Biso      1.000     H          0.157494  
         H18       1.0000    0.74400   0.77210   0.70960   Biso      1.000     H          0.14816600000000002           
         H19       1.0000    0.41370   0.89050   0.32650   Biso      1.000     H          0.11534100000000001           
         H20       1.0000    0.30990   0.77400   0.22360   Biso      1.000     H          0.115627  
         H21       1.0000    0.64730   0.87980   0.24860   Biso      1.000     H          0.156431  
         H22       1.0000    0.55180   0.75920   0.14820   Biso      1.000     H          0.15670699999999999           
         H23       1.0000    0.25090   0.61720   0.71450   Biso      1.000     H          0.151205  
         H24       1.0000    0.49670   0.38920   0.34160   Biso      1.000     H          0.10511600000000001           
         N1        1.0000    0.51070   0.74040   0.33060   Biso      1.000     N          -0.236639           
         N2        1.0000    0.70990   0.72650   0.48650   Biso      1.000     N          -0.24425700000000003          
         N3        1.0000    0.54130   0.55310   0.33990   Biso      1.000     N          -0.22750399999999998          
         N4        1.0000    0.29010   0.27350   0.51350   Biso      1.000     N          -0.24425700000000003          
         N5        1.0000    0.45870   0.44690   0.66010   Biso      1.000     N          -0.22750399999999998          
         N6        1.0000    0.48930   0.25960   0.66940   Biso      1.000     N          -0.236639           
         O1        1.0000    0.44390   0.18450   0.14010   Biso      1.000     O          -0.6883640000000001           
         O2        1.0000    0.71520   0.18500   0.12000   Biso      1.000     O          -0.655412           
         O3        1.0000    0.53200   0.94890   0.08620   Biso      1.000     O          -0.781183           
         O4        1.0000    0.72780   0.54410   0.49610   Biso      1.000     O          -0.48591000000000006          
         O5        1.0000    0.36730   0.56980   0.18350   Biso      1.000     O          -0.48708199999999996          
         O6        1.0000    0.94520   0.91320   0.89460   Biso      1.000     O          -0.794872           
         O7        1.0000    0.28590   0.91720   0.12190   Biso      1.000     O          -0.599362           
         O8        1.0000    0.07690   0.95620   0.78540   Biso      1.000     O          -0.592875           
         O9        1.0000    0.92310   0.04380   0.21460   Biso      1.000     O          -0.592875           
         O10       1.0000    0.27220   0.45590   0.50390   Biso      1.000     O          -0.48591000000000006          
         O11       1.0000    0.63270   0.43020   0.81650   Biso      1.000     O          -0.48708199999999996          
         O12       1.0000    0.71410   0.08280   0.87810   Biso      1.000     O          -0.599362           
         O13       1.0000    0.46800   0.05110   0.91380   Biso      1.000     O          -0.781183           
         O14       1.0000    0.28480   0.81500   0.88000   Biso      1.000     O          -0.655412           
         O15       1.0000    0.55610   0.81550   0.85990   Biso      1.000     O          -0.6883640000000001           
         O16       1.0000    0.05480   0.08680   0.10540   Biso      1.000     O          -0.794872           
         O17       1.0000    0.32180   0.09410   0.52540   Biso      1.000     O          -0.484903           
         O18       1.0000    0.67820   0.90590   0.47460   Biso      1.000     O          -0.484903 