
##########################################################################
#               Crystallographic Information Format file
#               Produced by PyCifRW module
#
#  This is a CIF file.  CIF has been adopted by the International
#  Union of Crystallography as the standard for data archiving and
#  transmission.
#
#  For information on this file format, follow the CIF links at
#  http://www.iucr.org
##########################################################################

data_image0

_cell_length_a                          8.9532
_cell_length_b                          15.1537
_cell_length_c                          16.466
_cell_angle_alpha                       90
_cell_angle_beta                        90
_cell_angle_gamma                       103.587
_symmetry_space_group_name_H-M          'P 1'
_symmetry_int_tables_number             1
loop_
  _symmetry_equiv_pos_as_xyz
         'x, y, z' 
loop_
  _atom_site_label
  _atom_site_occupancy
  _atom_site_fract_x
  _atom_site_fract_y
  _atom_site_fract_z
  _atom_site_thermal_displace_type
  _atom_site_B_iso_or_equiv
  _atom_site_type_symbol
  _atom_site_charge
         C1        1.0000    0.91440   0.64010   0.30090   Biso      1.000     C          -0.217371           
         C2        1.0000    0.20210   0.65910   0.94850   Biso      1.000     C          -0.104456           
         C3        1.0000    0.14490   0.73200   0.97490   Biso      1.000     C          -0.201811           
         C4        1.0000    0.08260   0.72870   0.05260   Biso      1.000     C          0.266955  
         C5        1.0000    0.03320   0.87680   0.04120   Biso      1.000     C          -0.17203800000000002          
         C6        1.0000    0.19680   0.93540   0.03450   Biso      1.000     C          0.633479  
         C7        1.0000    0.42230   0.34710   0.60010   Biso      1.000     C          -0.214736           
         C8        1.0000    0.11920   0.48150   0.40370   Biso      1.000     C          0.338866  
         C9        1.0000    0.23140   0.49150   0.46840   Biso      1.000     C          -0.136624           
         C10       1.0000    0.27560   0.57280   0.50310   Biso      1.000     C          0.077284  
         C11       1.0000    0.12120   0.64290   0.42550   Biso      1.000     C          0.12363900000000001           
         C12       1.0000    0.07050   0.72190   0.40900   Biso      1.000     C          0.070752  
         C13       1.0000    0.96580   0.71710   0.34510   Biso      1.000     C          0.19855899999999999           
         C14       1.0000    0.96230   0.56330   0.31910   Biso      1.000     C          -0.081049           
         C15       1.0000    0.07070   0.56450   0.38050   Biso      1.000     C          -0.13511099999999998          
         C16       1.0000    0.11380   0.79090   0.54170   Biso      1.000     C          -0.172454           
         C17       1.0000    0.04740   0.86340   0.58050   Biso      1.000     C          0.621314  
         C18       1.0000    0.82600   0.80100   0.26310   Biso      1.000     C          -0.178609           
         C19       1.0000    0.20350   0.58580   0.99560   Biso      1.000     C          0.083427  
         C20       1.0000    0.84070   0.89670   0.23520   Biso      1.000     C          0.66196   
         C21       1.0000    0.13600   0.58200   0.07280   Biso      1.000     C          -0.135818           
         C22       1.0000    0.38080   0.51850   0.90370   Biso      1.000     C          0.338864  
         C23       1.0000    0.29790   0.34090   0.44850   Biso      1.000     C          -0.104458           
         C24       1.0000    0.35510   0.26800   0.47490   Biso      1.000     C          -0.201809           
         C25       1.0000    0.41740   0.27130   0.55260   Biso      1.000     C          0.266955  
         C26       1.0000    0.46680   0.12320   0.54120   Biso      1.000     C          -0.17203800000000002          
         C27       1.0000    0.30320   0.06460   0.53450   Biso      1.000     C          0.633478  
         C28       1.0000    0.65930   0.10330   0.73520   Biso      1.000     C          0.661975  
         C29       1.0000    0.67400   0.19900   0.76310   Biso      1.000     C          -0.178615           
         C30       1.0000    0.45260   0.13660   0.08050   Biso      1.000     C          0.621308  
         C31       1.0000    0.38620   0.20910   0.04170   Biso      1.000     C          -0.172456           
         C32       1.0000    0.42930   0.43550   0.88050   Biso      1.000     C          -0.13510999999999998          
         C33       1.0000    0.53770   0.43670   0.81910   Biso      1.000     C          -0.081055           
         C34       1.0000    0.58560   0.35990   0.80090   Biso      1.000     C          -0.217362           
         C35       1.0000    0.53420   0.28290   0.84510   Biso      1.000     C          0.19855599999999998           
         C36       1.0000    0.42950   0.27810   0.90900   Biso      1.000     C          0.070751  
         C37       1.0000    0.37880   0.35710   0.92550   Biso      1.000     C          0.12363900000000001           
         C38       1.0000    0.22440   0.42720   0.00310   Biso      1.000     C          0.07725   
         C39       1.0000    0.26860   0.50850   0.96840   Biso      1.000     C          -0.13659000000000002          
         C40       1.0000    0.07770   0.65290   0.10010   Biso      1.000     C          -0.21473499999999998          
         C41       1.0000    0.80320   0.06460   0.96550   Biso      1.000     C          0.633476  
         C42       1.0000    0.96680   0.12320   0.95880   Biso      1.000     C          -0.172039           
         C43       1.0000    0.91740   0.27130   0.94740   Biso      1.000     C          0.266957  
         C44       1.0000    0.70210   0.65910   0.55150   Biso      1.000     C          -0.104459           
         C45       1.0000    0.70350   0.58580   0.50440   Biso      1.000     C          0.08344   
         C46       1.0000    0.63600   0.58200   0.42720   Biso      1.000     C          -0.135819           
         C47       1.0000    0.57770   0.65290   0.39990   Biso      1.000     C          -0.21473499999999998          
         C48       1.0000    0.88080   0.51850   0.59630   Biso      1.000     C          0.338866  
         C49       1.0000    0.76860   0.50850   0.53160   Biso      1.000     C          -0.136622           
         C50       1.0000    0.72440   0.42720   0.49690   Biso      1.000     C          0.077288  
         C51       1.0000    0.87880   0.35710   0.57450   Biso      1.000     C          0.12364100000000001           
         C52       1.0000    0.92950   0.27810   0.59100   Biso      1.000     C          0.07075   
         C53       1.0000    0.03420   0.28290   0.65490   Biso      1.000     C          0.198548  
         C54       1.0000    0.08560   0.35990   0.69910   Biso      1.000     C          -0.217358           
         C55       1.0000    0.03770   0.43670   0.68090   Biso      1.000     C          -0.081053           
         C56       1.0000    0.92930   0.43550   0.61950   Biso      1.000     C          -0.135113           
         C57       1.0000    0.88620   0.20910   0.45830   Biso      1.000     C          -0.172457           
         C58       1.0000    0.95260   0.13660   0.41950   Biso      1.000     C          0.621312  
         C59       1.0000    0.17400   0.19900   0.73690   Biso      1.000     C          -0.178607           
         C60       1.0000    0.15930   0.10330   0.76480   Biso      1.000     C          0.66197   
         C61       1.0000    0.64490   0.73200   0.52510   Biso      1.000     C          -0.201808           
         C62       1.0000    0.58260   0.72870   0.44740   Biso      1.000     C          0.266959  
         C63       1.0000    0.53320   0.87680   0.45880   Biso      1.000     C          -0.17203800000000002          
         C64       1.0000    0.69680   0.93540   0.46550   Biso      1.000     C          0.633479  
         C65       1.0000    0.85510   0.26800   0.02510   Biso      1.000     C          -0.20181  
         C66       1.0000    0.79790   0.34090   0.05150   Biso      1.000     C          -0.104458           
         C67       1.0000    0.79650   0.41420   0.00440   Biso      1.000     C          0.08343500000000001           
         C68       1.0000    0.86400   0.41800   0.92720   Biso      1.000     C          -0.13581700000000002          
         C69       1.0000    0.92230   0.34710   0.89990   Biso      1.000     C          -0.214736           
         C70       1.0000    0.61920   0.48150   0.09630   Biso      1.000     C          0.33886700000000003           
         C71       1.0000    0.73140   0.49150   0.03160   Biso      1.000     C          -0.13662  
         C72       1.0000    0.77560   0.57280   0.99690   Biso      1.000     C          0.077285  
         C73       1.0000    0.29650   0.41420   0.49560   Biso      1.000     C          0.083436  
         C74       1.0000    0.62120   0.64290   0.07450   Biso      1.000     C          0.12364000000000001           
         C75       1.0000    0.46580   0.71710   0.15490   Biso      1.000     C          0.198545  
         C76       1.0000    0.41440   0.64010   0.19910   Biso      1.000     C          -0.21735900000000002          
         C77       1.0000    0.46230   0.56330   0.18090   Biso      1.000     C          -0.081053           
         C78       1.0000    0.57070   0.56450   0.11950   Biso      1.000     C          -0.135115           
         C79       1.0000    0.61380   0.79090   0.95830   Biso      1.000     C          -0.172467           
         C80       1.0000    0.54740   0.86340   0.91950   Biso      1.000     C          0.621329  
         C81       1.0000    0.32600   0.80100   0.23690   Biso      1.000     C          -0.178611           
         C82       1.0000    0.34070   0.89670   0.26480   Biso      1.000     C          0.6619689999999999  
         C83       1.0000    0.57050   0.72190   0.09100   Biso      1.000     C          0.070744  
         C84       1.0000    0.36400   0.41800   0.57280   Biso      1.000     C          -0.135818           
         Eu1       1.0000    0.43638   0.04332   0.89354   Biso      1.000     Eu          1.338625  
         Eu2       1.0000    0.06362   0.95668   0.39354   Biso      1.000     Eu          1.338618  
         Eu3       1.0000    0.56362   0.95668   0.10646   Biso      1.000     Eu          1.338611  
         Eu4       1.0000    0.93638   0.04332   0.60646   Biso      1.000     Eu          1.338625  
         H1        1.0000    0.15000   0.23520   0.78140   Biso      1.000     H          0.10822899999999999           
         H2        1.0000    0.92270   0.51000   0.29060   Biso      1.000     H          0.127778  
         H3        1.0000    0.84640   0.63980   0.25810   Biso      1.000     H          0.132056  
         H4        1.0000    0.34910   0.57820   0.54380   Biso      1.000     H          0.100958  
         H5        1.0000    0.46580   0.35030   0.65160   Biso      1.000     H          0.121     
         H6        1.0000    0.36940   0.46860   0.60560   Biso      1.000     H          0.11558199999999999           
         H7        1.0000    0.25880   0.33940   0.39600   Biso      1.000     H          0.126707  
         H8        1.0000    0.35190   0.21820   0.44130   Biso      1.000     H          0.145393  
         H9        1.0000    0.53110   0.08780   0.56660   Biso      1.000     H          0.15079800000000002           
         H10       1.0000    0.50640   0.13900   0.48700   Biso      1.000     H          0.117306  
         H11       1.0000    0.77890   0.22480   0.78000   Biso      1.000     H          0.11564200000000001           
         H12       1.0000    0.65000   0.23520   0.71860   Biso      1.000     H          0.108231  
         H13       1.0000    0.44580   0.26870   0.05760   Biso      1.000     H          0.12443   
         H14       1.0000    0.05420   0.73130   0.55760   Biso      1.000     H          0.124429  
         H15       1.0000    0.57730   0.49000   0.79060   Biso      1.000     H          0.127779  
         H16       1.0000    0.65360   0.36020   0.75810   Biso      1.000     H          0.132056  
         H17       1.0000    0.15090   0.42180   0.04380   Biso      1.000     H          0.100962  
         H18       1.0000    0.03420   0.64970   0.15160   Biso      1.000     H          0.121001  
         H19       1.0000    0.13060   0.53140   0.10560   Biso      1.000     H          0.11558199999999999           
         H20       1.0000    0.24120   0.66060   0.89600   Biso      1.000     H          0.126708  
         H21       1.0000    0.27890   0.22480   0.72000   Biso      1.000     H          0.11564   
         H22       1.0000    0.96890   0.91220   0.06660   Biso      1.000     H          0.150799  
         H23       1.0000    0.99360   0.86100   0.98700   Biso      1.000     H          0.117308  
         H24       1.0000    0.28130   0.20310   0.06010   Biso      1.000     H          0.133071  
         H25       1.0000    0.21870   0.79690   0.56010   Biso      1.000     H          0.133071  
         H26       1.0000    0.14810   0.78180   0.94130   Biso      1.000     H          0.145395  
         H27       1.0000    0.72110   0.77520   0.28000   Biso      1.000     H          0.11564   
         H28       1.0000    0.85000   0.76480   0.21860   Biso      1.000     H          0.10822999999999999           
         H29       1.0000    0.78130   0.20310   0.43990   Biso      1.000     H          0.133071  
         H30       1.0000    0.94580   0.26870   0.44240   Biso      1.000     H          0.124431  
         H31       1.0000    0.15360   0.36020   0.74190   Biso      1.000     H          0.132056  
         H32       1.0000    0.65090   0.42180   0.45620   Biso      1.000     H          0.100957  
         H33       1.0000    0.53420   0.64970   0.34840   Biso      1.000     H          0.121     
         H34       1.0000    0.63060   0.53140   0.39440   Biso      1.000     H          0.11558099999999999           
         H35       1.0000    0.74120   0.66060   0.60400   Biso      1.000     H          0.126707  
         H36       1.0000    0.64810   0.78180   0.55870   Biso      1.000     H          0.145392  
         H37       1.0000    0.46890   0.91220   0.43340   Biso      1.000     H          0.150799  
         H38       1.0000    0.49360   0.86100   0.51300   Biso      1.000     H          0.117306  
         H39       1.0000    0.22110   0.77520   0.22000   Biso      1.000     H          0.11564100000000001           
         H40       1.0000    0.07730   0.49000   0.70940   Biso      1.000     H          0.127779  
         H41       1.0000    0.71870   0.79690   0.93990   Biso      1.000     H          0.133073  
         H42       1.0000    0.35000   0.76480   0.28140   Biso      1.000     H          0.10822999999999999           
         H43       1.0000    0.03110   0.08780   0.93340   Biso      1.000     H          0.150799  
         H44       1.0000    0.75880   0.33940   0.10400   Biso      1.000     H          0.126708  
         H45       1.0000    0.86940   0.46860   0.89440   Biso      1.000     H          0.11558099999999999           
         H46       1.0000    0.85190   0.21820   0.05870   Biso      1.000     H          0.145393  
         H47       1.0000    0.84910   0.57820   0.95620   Biso      1.000     H          0.100958  
         H48       1.0000    0.34640   0.63980   0.24190   Biso      1.000     H          0.13205699999999998           
         H49       1.0000    0.42270   0.51000   0.20940   Biso      1.000     H          0.12778   
         H50       1.0000    0.55420   0.73130   0.94240   Biso      1.000     H          0.12443199999999999           
         H51       1.0000    0.96580   0.35030   0.84840   Biso      1.000     H          0.121     
         H52       1.0000    0.00640   0.13900   0.01300   Biso      1.000     H          0.117307  
         O1        1.0000    0.70830   0.07610   0.91150   Biso      1.000     O          -0.555268           
         O2        1.0000    0.97850   0.20460   0.91350   Biso      1.000     O          -0.146879           
         O3        1.0000    0.24700   0.90450   0.31910   Biso      1.000     O          -0.603902           
         O4        1.0000    0.56310   0.40960   0.13100   Biso      1.000     O          -0.425626           
         O5        1.0000    0.72610   0.64870   0.01380   Biso      1.000     O          -0.083195           
         O6        1.0000    0.61110   0.80020   0.04790   Biso      1.000     O          -0.15626099999999998          
         O7        1.0000    0.55120   0.87000   0.84640   Biso      1.000     O          -0.431188           
         O8        1.0000    0.49040   0.91490   0.96480   Biso      1.000     O          -0.637221           
         O9        1.0000    0.42780   0.79870   0.17080   Biso      1.000     O          -0.169675           
         O10       1.0000    0.93690   0.59040   0.63100   Biso      1.000     O          -0.425626           
         O11       1.0000    0.72010   0.99090   0.52140   Biso      1.000     O          -0.5444140000000001           
         O12       1.0000    0.79170   0.92390   0.41150   Biso      1.000     O          -0.55528  
         O13       1.0000    0.52150   0.79540   0.41350   Biso      1.000     O          -0.146875           
         O14       1.0000    0.77390   0.35130   0.51380   Biso      1.000     O          -0.0832   
         O15       1.0000    0.88890   0.19980   0.54790   Biso      1.000     O          -0.156273           
         O16       1.0000    0.94880   0.13000   0.34640   Biso      1.000     O          -0.431158           
         O17       1.0000    0.00960   0.08510   0.46480   Biso      1.000     O          -0.637219           
         O18       1.0000    0.77990   0.00910   0.02140   Biso      1.000     O          -0.5444220000000001           
         O19       1.0000    0.07220   0.20130   0.67080   Biso      1.000     O          -0.169684           
         O20       1.0000    0.44720   0.95800   0.23770   Biso      1.000     O          -0.53012  
         O21       1.0000    0.94720   0.95800   0.26230   Biso      1.000     O          -0.530108           
         O22       1.0000    0.57220   0.20130   0.82920   Biso      1.000     O          -0.169675           
         O23       1.0000    0.92780   0.79870   0.32920   Biso      1.000     O          -0.169682           
         O24       1.0000    0.25300   0.09550   0.81910   Biso      1.000     O          -0.6038979999999999           
         O25       1.0000    0.22010   0.99090   0.97860   Biso      1.000     O          -0.544425           
         O26       1.0000    0.29170   0.92390   0.08850   Biso      1.000     O          -0.5552729999999999           
         O27       1.0000    0.02150   0.79540   0.08650   Biso      1.000     O          -0.14687999999999998          
         O28       1.0000    0.43690   0.59040   0.86900   Biso      1.000     O          -0.425624           
         O29       1.0000    0.27390   0.35130   0.98620   Biso      1.000     O          -0.083195           
         O30       1.0000    0.38890   0.19980   0.95210   Biso      1.000     O          -0.15626600000000002          
         O31       1.0000    0.44880   0.13000   0.15360   Biso      1.000     O          -0.43114300000000005          
         O32       1.0000    0.50960   0.08510   0.03520   Biso      1.000     O          -0.63722  
         O33       1.0000    0.75300   0.09550   0.68090   Biso      1.000     O          -0.603901           
         O34       1.0000    0.55280   0.04200   0.76230   Biso      1.000     O          -0.53014  
         O35       1.0000    0.27990   0.00910   0.47860   Biso      1.000     O          -0.544413           
         O36       1.0000    0.20830   0.07610   0.58850   Biso      1.000     O          -0.555275           
         O37       1.0000    0.47850   0.20460   0.58650   Biso      1.000     O          -0.146874           
         O38       1.0000    0.06310   0.40960   0.36900   Biso      1.000     O          -0.425624           
         O39       1.0000    0.22610   0.64870   0.48620   Biso      1.000     O          -0.0832   
         O40       1.0000    0.11110   0.80020   0.45210   Biso      1.000     O          -0.156275           
         O41       1.0000    0.05120   0.87000   0.65360   Biso      1.000     O          -0.43115699999999996          
         O42       1.0000    0.99040   0.91490   0.53520   Biso      1.000     O          -0.637225           
         O43       1.0000    0.74700   0.90450   0.18090   Biso      1.000     O          -0.6038899999999999           
         O44       1.0000    0.05280   0.04200   0.73770   Biso      1.000     O          -0.530118 