
##########################################################################
#               Crystallographic Information Format file
#               Produced by PyCifRW module
#
#  This is a CIF file.  CIF has been adopted by the International
#  Union of Crystallography as the standard for data archiving and
#  transmission.
#
#  For information on this file format, follow the CIF links at
#  http://www.iucr.org
##########################################################################

data_image0

_cell_length_a                          7.2308
_cell_length_b                          17.9845
_cell_length_c                          17.9845
_cell_angle_alpha                       61.767
_cell_angle_beta                        82.2981
_cell_angle_gamma                       97.7019
_symmetry_space_group_name_H-M          'P 1'
_symmetry_int_tables_number             1
loop_
  _symmetry_equiv_pos_as_xyz
         'x, y, z' 
loop_
  _atom_site_label
  _atom_site_occupancy
  _atom_site_fract_x
  _atom_site_fract_y
  _atom_site_fract_z
  _atom_site_thermal_displace_type
  _atom_site_B_iso_or_equiv
  _atom_site_type_symbol
  _atom_site_charge
         C1        1.0000    0.62660   0.36960   0.82570   Biso      1.000     C          0.536441  
         C2        1.0000    0.92390   0.96030   0.50960   Biso      1.000     C          0.528308  
         C3        1.0000    0.54770   0.17430   0.19530   Biso      1.000     C          0.537112  
         C4        1.0000    0.43980   0.15920   0.13340   Biso      1.000     C          0.545233  
         C5        1.0000    0.03640   0.46990   0.03970   Biso      1.000     C          0.530122  
         C6        1.0000    0.37340   0.63040   0.17430   Biso      1.000     C          0.536442  
         C7        1.0000    0.28060   0.70740   0.15920   Biso      1.000     C          0.544434  
         C8        1.0000    0.56650   0.49040   0.46990   Biso      1.000     C          0.528964  
         C9        1.0000    0.74300   0.19530   0.63040   Biso      1.000     C          0.536473  
         C10       1.0000    0.57320   0.13340   0.70740   Biso      1.000     C          0.543515  
         C11       1.0000    0.07610   0.03970   0.49040   Biso      1.000     C          0.528308  
         C12       1.0000    0.43350   0.50960   0.53010   Biso      1.000     C          0.5289659999999999  
         C13       1.0000    0.71940   0.29260   0.84080   Biso      1.000     C          0.544434  
         C14       1.0000    0.96360   0.53010   0.96030   Biso      1.000     C          0.530122  
         C15       1.0000    0.56020   0.84080   0.86660   Biso      1.000     C          0.545233  
         C16       1.0000    0.45230   0.82570   0.80470   Biso      1.000     C          0.5371130000000001  
         C17       1.0000    0.42680   0.86660   0.29260   Biso      1.000     C          0.543515  
         C18       1.0000    0.25700   0.80470   0.36960   Biso      1.000     C          0.536474  
         Er1       1.0000    0.78323   0.00052   0.66851   Biso      1.000     Er          2.128802  
         Er2       1.0000    0.54826   0.33149   0.66903   Biso      1.000     Er          2.128821  
         Er3       1.0000    0.21677   0.99948   0.33149   Biso      1.000     Er          2.128803  
         Er4       1.0000    0.78271   0.33097   0.00052   Biso      1.000     Er          2.128845  
         Er5       1.0000    0.45174   0.66851   0.33097   Biso      1.000     Er          2.128821  
         Er6       1.0000    0.21729   0.66903   0.99948   Biso      1.000     Er          2.128845  
         O1        1.0000    0.15430   0.83866   0.39936   Biso      1.000     O          -0.613621           
         O2        1.0000    0.94990   0.93141   0.45851   Biso      1.000     O          -0.638315           
         O3        1.0000    0.79057   0.93130   0.57489   Biso      1.000     O          -0.6079680000000001           
         O4        1.0000    0.53124   0.83210   0.26338   Biso      1.000     O          -0.6305069999999999           
         O5        1.0000    0.23940   0.72564   0.39494   Biso      1.000     O          -0.618013           
         O6        1.0000    0.71180   0.26757   0.78727   Biso      1.000     O          -0.629197           
         O7        1.0000    0.55366   0.39936   0.76198   Biso      1.000     O          -0.613834           
         O8        1.0000    0.79462   0.26338   0.90452   Biso      1.000     O          -0.630953           
         O9        1.0000    0.36546   0.57489   0.49381   Biso      1.000     O          -0.608374           
         O10       1.0000    0.63434   0.39494   0.87942   Biso      1.000     O          -0.617594           
         O11       1.0000    0.49907   0.78727   0.94516   Biso      1.000     O          -0.629215           
         O12       1.0000    0.31564   0.76198   0.83866   Biso      1.000     O          -0.614329           
         O13       1.0000    0.01849   0.61008   0.93141   Biso      1.000     O          -0.6392329999999999           
         O14       1.0000    0.85927   0.49381   0.93130   Biso      1.000     O          -0.608984           
         O15       1.0000    0.44423   0.94516   0.26757   Biso      1.000     O          -0.628534           
         O16       1.0000    0.40841   0.45851   0.61008   Biso      1.000     O          -0.638637           
         O17       1.0000    0.48624   0.12058   0.27436   Biso      1.000     O          -0.618258           
         O18       1.0000    0.76060   0.27436   0.60506   Biso      1.000     O          -0.618013           
         O19       1.0000    0.14073   0.50619   0.06870   Biso      1.000     O          -0.608984           
         O20       1.0000    0.55577   0.05484   0.73243   Biso      1.000     O          -0.628534           
         O21       1.0000    0.84570   0.16134   0.60064   Biso      1.000     O          -0.613621           
         O22       1.0000    0.05010   0.06859   0.54149   Biso      1.000     O          -0.638315           
         O23       1.0000    0.20943   0.06870   0.42511   Biso      1.000     O          -0.6079680000000001           
         O24       1.0000    0.46876   0.16790   0.73662   Biso      1.000     O          -0.630506           
         O25       1.0000    0.69914   0.90452   0.83210   Biso      1.000     O          -0.631508           
         O26       1.0000    0.28820   0.73243   0.21273   Biso      1.000     O          -0.629197           
         O27       1.0000    0.44634   0.60064   0.23802   Biso      1.000     O          -0.613834           
         O28       1.0000    0.59159   0.54149   0.38992   Biso      1.000     O          -0.638637           
         O29       1.0000    0.63454   0.42511   0.50619   Biso      1.000     O          -0.6083729999999999           
         O30       1.0000    0.20538   0.73662   0.09548   Biso      1.000     O          -0.630953           
         O31       1.0000    0.36566   0.60506   0.12058   Biso      1.000     O          -0.617594           
         O32       1.0000    0.50093   0.21273   0.05484   Biso      1.000     O          -0.629215           
         O33       1.0000    0.68436   0.23802   0.16134   Biso      1.000     O          -0.614328           
         O34       1.0000    0.98151   0.38992   0.06859   Biso      1.000     O          -0.639234           
         O35       1.0000    0.30086   0.09548   0.16790   Biso      1.000     O          -0.631508           
         O36       1.0000    0.51376   0.87942   0.72564   Biso      1.000     O          -0.618258 