
##########################################################################
#               Crystallographic Information Format file
#               Produced by PyCifRW module
#
#  This is a CIF file.  CIF has been adopted by the International
#  Union of Crystallography as the standard for data archiving and
#  transmission.
#
#  For information on this file format, follow the CIF links at
#  http://www.iucr.org
##########################################################################

data_image0

_cell_length_a                          11.6583
_cell_length_b                          5.5671
_cell_length_c                          22.911
_cell_angle_alpha                       90
_cell_angle_beta                        100.901
_cell_angle_gamma                       90
_symmetry_space_group_name_H-M          'P 1'
_symmetry_int_tables_number             1
loop_
  _symmetry_equiv_pos_as_xyz
         'x, y, z' 
loop_
  _atom_site_label
  _atom_site_occupancy
  _atom_site_fract_x
  _atom_site_fract_y
  _atom_site_fract_z
  _atom_site_thermal_displace_type
  _atom_site_B_iso_or_equiv
  _atom_site_type_symbol
  _atom_site_charge
         C1        1.0000    0.49300   0.75890   0.26226   Biso      1.000     C          0.638314  
         C2        1.0000    0.70330   0.79130   0.09002   Biso      1.000     C          -0.017973           
         C3        1.0000    0.90030   0.79180   0.79927   Biso      1.000     C          -0.020787           
         C4        1.0000    0.61940   0.66780   0.98997   Biso      1.000     C          -0.09954500000000001          
         C5        1.0000    0.81020   0.05870   0.86026   Biso      1.000     C          -0.10703399999999999          
         C6        1.0000    0.81210   0.62360   0.79993   Biso      1.000     C          -0.097969           
         C7        1.0000    0.72110   0.89180   0.85865   Biso      1.000     C          -0.083048           
         C8        1.0000    0.64860   0.89130   0.97006   Biso      1.000     C          -0.07408  
         C9        1.0000    0.73520   0.01150   0.06916   Biso      1.000     C          -0.088886           
         C10       1.0000    0.39930   0.49050   0.32945   Biso      1.000     C          -0.088612           
         C11       1.0000    0.20870   0.43890   0.50820   Biso      1.000     C          -0.101583           
         C12       1.0000    0.14760   0.88080   0.55061   Biso      1.000     C          -0.090788           
         C13       1.0000    0.22010   0.82660   0.32938   Biso      1.000     C          -0.09479800000000001          
         C14       1.0000    0.23520   0.48850   0.56916   Biso      1.000     C          -0.088886           
         C15       1.0000    0.20330   0.70870   0.59002   Biso      1.000     C          -0.017972           
         C16       1.0000    0.40030   0.70820   0.29927   Biso      1.000     C          -0.020787           
         C17       1.0000    0.11940   0.83220   0.48997   Biso      1.000     C          -0.09954500000000001          
         C18       1.0000    0.22660   0.76210   0.65551   Biso      1.000     C          0.624045  
         C19       1.0000    0.31020   0.44130   0.36026   Biso      1.000     C          -0.10703299999999999          
         C20       1.0000    0.72010   0.67340   0.82938   Biso      1.000     C          -0.09479800000000001          
         C21       1.0000    0.70870   0.06110   0.00820   Biso      1.000     C          -0.101582           
         C22       1.0000    0.60070   0.50950   0.67055   Biso      1.000     C          -0.088612           
         C23       1.0000    0.77340   0.23790   0.34449   Biso      1.000     C          0.624045  
         C24       1.0000    0.79130   0.56110   0.49180   Biso      1.000     C          -0.101583           
         C25       1.0000    0.85240   0.11920   0.44939   Biso      1.000     C          -0.090788           
         C26       1.0000    0.77990   0.17340   0.67062   Biso      1.000     C          -0.09479800000000001          
         C27       1.0000    0.76480   0.51150   0.43084   Biso      1.000     C          -0.088886           
         C28       1.0000    0.79670   0.29130   0.40998   Biso      1.000     C          -0.017972           
         C29       1.0000    0.64760   0.61920   0.05061   Biso      1.000     C          -0.090787           
         C30       1.0000    0.59970   0.29180   0.70073   Biso      1.000     C          -0.020787           
         C31       1.0000    0.68980   0.55870   0.63974   Biso      1.000     C          -0.10703299999999999          
         C32       1.0000    0.68790   0.12360   0.70007   Biso      1.000     C          -0.097969           
         C33       1.0000    0.77890   0.39180   0.64135   Biso      1.000     C          -0.083048           
         C34       1.0000    0.85140   0.39130   0.52994   Biso      1.000     C          -0.07407899999999999          
         C35       1.0000    0.99300   0.74110   0.76226   Biso      1.000     C          0.638314  
         C36       1.0000    0.89930   0.00950   0.82945   Biso      1.000     C          -0.088611           
         C37       1.0000    0.72660   0.73790   0.15551   Biso      1.000     C          0.624045  
         C38       1.0000    0.88060   0.16780   0.51003   Biso      1.000     C          -0.09954500000000001          
         C39       1.0000    0.31210   0.87640   0.29993   Biso      1.000     C          -0.097969           
         C40       1.0000    0.50700   0.24110   0.73774   Biso      1.000     C          0.638314  
         C41       1.0000    0.18790   0.37640   0.20007   Biso      1.000     C          -0.097969           
         C42       1.0000    0.18980   0.94130   0.13974   Biso      1.000     C          -0.10703399999999999          
         C43       1.0000    0.27340   0.26210   0.84449   Biso      1.000     C          0.624045  
         C44       1.0000    0.10070   0.99050   0.17055   Biso      1.000     C          -0.088611           
         C45       1.0000    0.35240   0.38080   0.94939   Biso      1.000     C          -0.090788           
         C46       1.0000    0.27990   0.32660   0.17062   Biso      1.000     C          -0.09479800000000001          
         C47       1.0000    0.00700   0.25890   0.23774   Biso      1.000     C          0.638314  
         C48       1.0000    0.26480   0.98850   0.93084   Biso      1.000     C          -0.088886           
         C49       1.0000    0.27890   0.10820   0.14135   Biso      1.000     C          -0.083048           
         C50       1.0000    0.14860   0.60870   0.47006   Biso      1.000     C          -0.07407899999999999          
         C51       1.0000    0.29130   0.93890   0.99180   Biso      1.000     C          -0.101582           
         C52       1.0000    0.22110   0.60820   0.35865   Biso      1.000     C          -0.083048           
         C53       1.0000    0.38060   0.33220   0.01003   Biso      1.000     C          -0.09954500000000001          
         C54       1.0000    0.09970   0.20820   0.20073   Biso      1.000     C          -0.020787           
         C55       1.0000    0.29670   0.20870   0.90998   Biso      1.000     C          -0.017972           
         C56       1.0000    0.35140   0.10870   0.02994   Biso      1.000     C          -0.07407899999999999          
         Ca1       1.0000    0.63699   0.24316   0.22135   Biso      1.000     Ca          1.4477149999999999  
         Ca2       1.0000    0.86301   0.74316   0.27865   Biso      1.000     Ca          1.4477149999999999  
         Ca3       1.0000    0.13699   0.25684   0.72135   Biso      1.000     Ca          1.4477149999999999  
         Ca4       1.0000    0.36301   0.75684   0.77865   Biso      1.000     Ca          1.4477149999999999  
         H1        1.0000    0.37130   0.53270   0.93480   Biso      1.000     H          0.112148  
         H2        1.0000    0.58110   0.55100   0.96290   Biso      1.000     H          0.124172  
         H3        1.0000    0.95960   0.12400   0.82890   Biso      1.000     H          0.12273900000000001           
         H4        1.0000    0.62870   0.46730   0.06520   Biso      1.000     H          0.112148  
         H5        1.0000    0.34120   0.43890   0.17070   Biso      1.000     H          0.126245  
         H6        1.0000    0.18980   0.79610   0.11800   Biso      1.000     H          0.11636700000000001           
         H7        1.0000    0.73160   0.20910   0.99320   Biso      1.000     H          0.11570699999999999           
         H8        1.0000    0.81020   0.20390   0.88200   Biso      1.000     H          0.11636700000000001           
         H9        1.0000    0.65880   0.56110   0.82930   Biso      1.000     H          0.126245  
         H10       1.0000    0.41890   0.44900   0.03710   Biso      1.000     H          0.124172  
         H11       1.0000    0.22530   0.87260   0.90390   Biso      1.000     H          0.128553  
         H12       1.0000    0.77470   0.12740   0.09610   Biso      1.000     H          0.128553  
         H13       1.0000    0.26840   0.79090   0.00680   Biso      1.000     H          0.11570699999999999           
         H14       1.0000    0.31440   0.02600   0.28020   Biso      1.000     H          0.107802  
         H15       1.0000    0.68560   0.97400   0.71980   Biso      1.000     H          0.107802  
         H16       1.0000    0.31020   0.29610   0.38200   Biso      1.000     H          0.11636700000000001           
         H17       1.0000    0.08110   0.94900   0.46290   Biso      1.000     H          0.124173  
         H18       1.0000    0.76840   0.70910   0.50680   Biso      1.000     H          0.11570699999999999           
         H19       1.0000    0.27470   0.37260   0.59610   Biso      1.000     H          0.128553  
         H20       1.0000    0.15880   0.93890   0.32930   Biso      1.000     H          0.126245  
         H21       1.0000    0.12870   0.03270   0.56520   Biso      1.000     H          0.112148  
         H22       1.0000    0.87130   0.96730   0.43480   Biso      1.000     H          0.112148  
         H23       1.0000    0.23160   0.29090   0.49320   Biso      1.000     H          0.11570699999999999           
         H24       1.0000    0.04040   0.87600   0.17110   Biso      1.000     H          0.12273900000000001           
         H25       1.0000    0.45960   0.37600   0.32890   Biso      1.000     H          0.12273900000000001           
         H26       1.0000    0.54040   0.62400   0.67110   Biso      1.000     H          0.12273900000000001           
         H27       1.0000    0.84120   0.06110   0.67070   Biso      1.000     H          0.126245  
         H28       1.0000    0.68980   0.70390   0.61800   Biso      1.000     H          0.11636700000000001           
         H29       1.0000    0.18560   0.52600   0.21980   Biso      1.000     H          0.107802  
         H30       1.0000    0.91890   0.05100   0.53710   Biso      1.000     H          0.124172  
         H31       1.0000    0.81440   0.47400   0.78020   Biso      1.000     H          0.107802  
         H32       1.0000    0.72530   0.62740   0.40390   Biso      1.000     H          0.128553  
         O1        1.0000    0.98770   0.47600   0.24702   Biso      1.000     O          -0.657    
         O2        1.0000    0.26350   0.47700   0.82768   Biso      1.000     O          -0.6369630000000001           
         O3        1.0000    0.25974   0.08570   0.80889   Biso      1.000     O          -0.685759           
         O4        1.0000    0.41358   0.77800   0.10970   Biso      1.000     O          -0.503821           
         O5        1.0000    0.95873   0.08080   0.25598   Biso      1.000     O          -0.641042           
         O6        1.0000    0.45873   0.41920   0.75598   Biso      1.000     O          -0.641042           
         O7        1.0000    0.51230   0.97600   0.25298   Biso      1.000     O          -0.657    
         O8        1.0000    0.76350   0.02300   0.32768   Biso      1.000     O          -0.6369630000000001           
         O9        1.0000    0.23650   0.97700   0.67232   Biso      1.000     O          -0.6369630000000001           
         O10       1.0000    0.24026   0.58570   0.69111   Biso      1.000     O          -0.685759           
         O11       1.0000    0.08642   0.27800   0.39030   Biso      1.000     O          -0.5038199999999999           
         O12       1.0000    0.00581   0.69200   0.37093   Biso      1.000     O          -0.564042           
         O13       1.0000    0.50581   0.80800   0.87093   Biso      1.000     O          -0.564042           
         O14       1.0000    0.58642   0.22200   0.89030   Biso      1.000     O          -0.5038199999999999           
         O15       1.0000    0.48770   0.02400   0.74702   Biso      1.000     O          -0.657    
         O16       1.0000    0.74026   0.91430   0.19111   Biso      1.000     O          -0.685759           
         O17       1.0000    0.49419   0.19200   0.12907   Biso      1.000     O          -0.564042           
         O18       1.0000    0.01230   0.52400   0.75298   Biso      1.000     O          -0.657    
         O19       1.0000    0.04127   0.91920   0.74402   Biso      1.000     O          -0.641042           
         O20       1.0000    0.54127   0.58080   0.24402   Biso      1.000     O          -0.641042           
         O21       1.0000    0.99419   0.30800   0.62907   Biso      1.000     O          -0.564042           
         O22       1.0000    0.91358   0.72200   0.60970   Biso      1.000     O          -0.5038199999999999           
         O23       1.0000    0.75974   0.41430   0.30889   Biso      1.000     O          -0.685759           
         O24       1.0000    0.73650   0.52300   0.17232   Biso      1.000     O          -0.6369630000000001           
         S1        1.0000    0.39687   0.03423   0.10599   Biso      1.000     S          0.9899190000000001  
         S2        1.0000    0.10313   0.53423   0.39401   Biso      1.000     S          0.9899190000000001  
         S3        1.0000    0.89687   0.46577   0.60599   Biso      1.000     S          0.9899190000000001  
         S4        1.0000    0.60313   0.96577   0.89401   Biso      1.000     S          0.9899190000000001 