
##########################################################################
#               Crystallographic Information Format file
#               Produced by PyCifRW module
#
#  This is a CIF file.  CIF has been adopted by the International
#  Union of Crystallography as the standard for data archiving and
#  transmission.
#
#  For information on this file format, follow the CIF links at
#  http://www.iucr.org
##########################################################################

data_image0

_cell_length_a                          5.1634
_cell_length_b                          10.5518
_cell_length_c                          15.4849
_cell_angle_alpha                       82.725
_cell_angle_beta                        87.233
_cell_angle_gamma                       83.782
_symmetry_space_group_name_H-M          'P 1'
_symmetry_int_tables_number             1
loop_
  _symmetry_equiv_pos_as_xyz
         'x, y, z' 
loop_
  _atom_site_label
  _atom_site_occupancy
  _atom_site_fract_x
  _atom_site_fract_y
  _atom_site_fract_z
  _atom_site_thermal_displace_type
  _atom_site_B_iso_or_equiv
  _atom_site_type_symbol
  _atom_site_charge
         C1        1.0000    0.98160   0.63204   0.48961   Biso      1.000     C          -0.197138           
         C2        1.0000    0.06910   0.80746   0.72851   Biso      1.000     C          -0.085511           
         C3        1.0000    0.92100   0.43449   0.43292   Biso      1.000     C          0.028856  
         C4        1.0000    0.90360   0.57009   0.42244   Biso      1.000     C          0.037516  
         C5        1.0000    0.83680   0.36139   0.36444   Biso      1.000     C          0.08355599999999999           
         C6        1.0000    0.60640   0.40094   0.32089   Biso      1.000     C          -0.14318699999999998          
         C7        1.0000    0.54230   0.34003   0.25189   Biso      1.000     C          -0.091347           
         C8        1.0000    0.70690   0.23732   0.22561   Biso      1.000     C          -0.06275  
         C9        1.0000    0.99430   0.25381   0.34083   Biso      1.000     C          -0.149332           
         C10       1.0000    0.65380   0.17844   0.14645   Biso      1.000     C          0.625042  
         C11       1.0000    0.81710   0.64828   0.33979   Biso      1.000     C          0.07232899999999999           
         C12       1.0000    0.59260   0.73586   0.33885   Biso      1.000     C          -0.168349           
         C13       1.0000    0.50300   0.80052   0.26028   Biso      1.000     C          -0.095088           
         C14       1.0000    0.63980   0.78305   0.18254   Biso      1.000     C          -0.044795999999999996         
         C15       1.0000    0.87070   0.70153   0.18398   Biso      1.000     C          -0.080975           
         C16       1.0000    0.95580   0.63383   0.26181   Biso      1.000     C          -0.14799400000000001          
         C17       1.0000    0.53520   0.84546   0.09700   Biso      1.000     C          0.612847  
         C18       1.0000    0.93090   0.19254   0.27149   Biso      1.000     C          -0.085508           
         C19       1.0000    0.46480   0.15454   0.90300   Biso      1.000     C          0.612847  
         C20       1.0000    0.04420   0.36617   0.73819   Biso      1.000     C          -0.14799600000000002          
         C21       1.0000    0.01840   0.36796   0.51039   Biso      1.000     C          -0.197138           
         C22       1.0000    0.12930   0.29847   0.81602   Biso      1.000     C          -0.080973           
         C23       1.0000    0.07900   0.56551   0.56708   Biso      1.000     C          0.028856  
         C24       1.0000    0.09640   0.42991   0.57756   Biso      1.000     C          0.037516  
         C25       1.0000    0.16320   0.63861   0.63556   Biso      1.000     C          0.08355599999999999           
         C26       1.0000    0.39360   0.59906   0.67911   Biso      1.000     C          -0.14318699999999998          
         C27       1.0000    0.45770   0.65997   0.74811   Biso      1.000     C          -0.091348           
         C28       1.0000    0.29310   0.76268   0.77439   Biso      1.000     C          -0.06275  
         C29       1.0000    0.34620   0.82156   0.85355   Biso      1.000     C          0.625042  
         C30       1.0000    0.18290   0.35172   0.66021   Biso      1.000     C          0.07232899999999999           
         C31       1.0000    0.40740   0.26414   0.66115   Biso      1.000     C          -0.16835  
         C32       1.0000    0.49700   0.19948   0.73972   Biso      1.000     C          -0.095088           
         C33       1.0000    0.00570   0.74619   0.65917   Biso      1.000     C          -0.14933  
         C34       1.0000    0.36020   0.21695   0.81746   Biso      1.000     C          -0.044795999999999996         
         Ca1       1.0000    0.00000   0.00000   0.00000   Biso      1.000     Ca          1.387879  
         H1        1.0000    0.96800   0.72320   0.48250   Biso      1.000     H          0.12216600000000001           
         H2        1.0000    0.41020   0.18300   0.06900   Biso      1.000     H          0.406242  
         H3        1.0000    0.88880   0.42330   0.73810   Biso      1.000     H          0.11006600000000001           
         H4        1.0000    0.11120   0.57670   0.26190   Biso      1.000     H          0.11006600000000001           
         H5        1.0000    0.97020   0.69230   0.13150   Biso      1.000     H          0.11919300000000001           
         H6        1.0000    0.34680   0.85710   0.25980   Biso      1.000     H          0.11256300000000001           
         H7        1.0000    0.03200   0.27680   0.51750   Biso      1.000     H          0.12216600000000001           
         H8        1.0000    0.50150   0.75110   0.39190   Biso      1.000     H          0.11722   
         H9        1.0000    0.61450   0.63160   0.77760   Biso      1.000     H          0.11303900000000001           
         H10       1.0000    0.04020   0.12030   0.25540   Biso      1.000     H          0.123128  
         H11       1.0000    0.49210   0.47040   0.33870   Biso      1.000     H          0.11348599999999999           
         H12       1.0000    0.49850   0.24890   0.60810   Biso      1.000     H          0.11722   
         H13       1.0000    0.95980   0.87970   0.74460   Biso      1.000     H          0.123129  
         H14       1.0000    0.65320   0.14290   0.74020   Biso      1.000     H          0.112561  
         H15       1.0000    0.58980   0.81700   0.93100   Biso      1.000     H          0.406242  
         H16       1.0000    0.38550   0.36840   0.22240   Biso      1.000     H          0.11303800000000001           
         H17       1.0000    0.50790   0.52960   0.66130   Biso      1.000     H          0.11348599999999999           
         H18       1.0000    0.85410   0.77760   0.62750   Biso      1.000     H          0.111469  
         H19       1.0000    0.02980   0.30770   0.86850   Biso      1.000     H          0.11919300000000001           
         H20       1.0000    0.14590   0.22240   0.37250   Biso      1.000     H          0.111469  
         O1        1.0000    0.30520   0.15016   0.96937   Biso      1.000     O          -0.677131           
         O2        1.0000    0.57190   0.78049   0.88679   Biso      1.000     O          -0.486525           
         O3        1.0000    0.30110   0.88719   0.09426   Biso      1.000     O          -0.615351           
         O4        1.0000    0.69480   0.84984   0.03063   Biso      1.000     O          -0.677131           
         O5        1.0000    0.81280   0.09943   0.11627   Biso      1.000     O          -0.557186           
         O6        1.0000    0.42810   0.21951   0.11321   Biso      1.000     O          -0.486525           
         O7        1.0000    0.69890   0.11281   0.90574   Biso      1.000     O          -0.61535  
         O8        1.0000    0.18720   0.90057   0.88373   Biso      1.000     O          -0.557185 