
##########################################################################
#               Crystallographic Information Format file
#               Produced by PyCifRW module
#
#  This is a CIF file.  CIF has been adopted by the International
#  Union of Crystallography as the standard for data archiving and
#  transmission.
#
#  For information on this file format, follow the CIF links at
#  http://www.iucr.org
##########################################################################

data_image0

_cell_length_a                          5.1803
_cell_length_b                          10.6508
_cell_length_c                          15.2914
_cell_angle_alpha                       82.591
_cell_angle_beta                        85.945
_cell_angle_gamma                       82.739
_symmetry_space_group_name_H-M          'P 1'
_symmetry_int_tables_number             1
loop_
  _symmetry_equiv_pos_as_xyz
         'x, y, z' 
loop_
  _atom_site_label
  _atom_site_occupancy
  _atom_site_fract_x
  _atom_site_fract_y
  _atom_site_fract_z
  _atom_site_thermal_displace_type
  _atom_site_B_iso_or_equiv
  _atom_site_type_symbol
  _atom_site_charge
         C1        1.0000    0.98180   0.63060   0.48763   Biso      1.000     C          -0.196486           
         C2        1.0000    0.35290   0.82980   0.84692   Biso      1.000     C          0.624455  
         C3        1.0000    0.91960   0.43340   0.43438   Biso      1.000     C          0.027014999999999997          
         C4        1.0000    0.90270   0.56770   0.42125   Biso      1.000     C          0.036667  
         C5        1.0000    0.81450   0.64420   0.33744   Biso      1.000     C          0.072726  
         C6        1.0000    0.58890   0.73060   0.33695   Biso      1.000     C          -0.163528           
         C7        1.0000    0.49990   0.79460   0.25810   Biso      1.000     C          -0.1003   
         C8        1.0000    0.64000   0.77680   0.17859   Biso      1.000     C          -0.037252           
         C9        1.0000    0.87200   0.69480   0.17932   Biso      1.000     C          -0.082899           
         C10       1.0000    0.95490   0.62810   0.25764   Biso      1.000     C          -0.146284           
         C11       1.0000    0.53770   0.84070   0.09303   Biso      1.000     C          0.610228  
         C12       1.0000    0.83460   0.35910   0.36684   Biso      1.000     C          0.086978  
         C13       1.0000    0.60500   0.39850   0.32444   Biso      1.000     C          -0.143643           
         C14       1.0000    0.53980   0.33640   0.25666   Biso      1.000     C          -0.09235800000000001          
         C15       1.0000    0.70260   0.23100   0.23094   Biso      1.000     C          -0.061746           
         C16       1.0000    0.92550   0.18690   0.27637   Biso      1.000     C          -0.083775           
         C17       1.0000    0.99020   0.24990   0.34391   Biso      1.000     C          -0.150652           
         C18       1.0000    0.64710   0.17020   0.15308   Biso      1.000     C          0.624454  
         C19       1.0000    0.00980   0.75010   0.65609   Biso      1.000     C          -0.150658           
         C20       1.0000    0.07450   0.81310   0.72363   Biso      1.000     C          -0.083771           
         C21       1.0000    0.01820   0.36940   0.51237   Biso      1.000     C          -0.196487           
         C22       1.0000    0.12800   0.30520   0.82068   Biso      1.000     C          -0.082899           
         C23       1.0000    0.08040   0.56660   0.56562   Biso      1.000     C          0.027014  
         C24       1.0000    0.46020   0.66360   0.74334   Biso      1.000     C          -0.092361           
         C25       1.0000    0.09730   0.43230   0.57875   Biso      1.000     C          0.036668  
         C26       1.0000    0.18550   0.35580   0.66256   Biso      1.000     C          0.072726  
         C27       1.0000    0.41110   0.26940   0.66305   Biso      1.000     C          -0.163528           
         C28       1.0000    0.50010   0.20540   0.74190   Biso      1.000     C          -0.100301           
         C29       1.0000    0.36000   0.22320   0.82141   Biso      1.000     C          -0.037251           
         C30       1.0000    0.29740   0.76900   0.76906   Biso      1.000     C          -0.061747           
         C31       1.0000    0.04510   0.37190   0.74236   Biso      1.000     C          -0.146285           
         C32       1.0000    0.46230   0.15930   0.90697   Biso      1.000     C          0.610228  
         C33       1.0000    0.16540   0.64090   0.63316   Biso      1.000     C          0.086979  
         C34       1.0000    0.39500   0.60150   0.67556   Biso      1.000     C          -0.14364000000000002          
         Ca1       1.0000    0.00000   0.00000   0.00000   Biso      1.000     Ca          1.388737  
         H1        1.0000    0.40140   0.17340   0.07790   Biso      1.000     H          0.409609  
         H2        1.0000    0.96760   0.72110   0.47920   Biso      1.000     H          0.12153299999999999           
         H3        1.0000    0.14200   0.21860   0.37510   Biso      1.000     H          0.110882  
         H4        1.0000    0.96610   0.88670   0.73900   Biso      1.000     H          0.120999  
         H5        1.0000    0.03390   0.11330   0.26100   Biso      1.000     H          0.120999  
         H6        1.0000    0.85800   0.78140   0.62490   Biso      1.000     H          0.110884  
         H7        1.0000    0.50880   0.53110   0.65780   Biso      1.000     H          0.11293099999999999           
         H8        1.0000    0.38360   0.36550   0.22740   Biso      1.000     H          0.112475  
         H9        1.0000    0.03240   0.27890   0.52080   Biso      1.000     H          0.12153499999999999           
         H10       1.0000    0.50440   0.25420   0.60890   Biso      1.000     H          0.115183  
         H11       1.0000    0.49120   0.46890   0.34220   Biso      1.000     H          0.11293099999999999           
         H12       1.0000    0.59860   0.82660   0.92210   Biso      1.000     H          0.409609  
         H13       1.0000    0.88970   0.42980   0.74270   Biso      1.000     H          0.109901  
         H14       1.0000    0.49560   0.74580   0.39110   Biso      1.000     H          0.115183  
         H15       1.0000    0.65760   0.14910   0.74180   Biso      1.000     H          0.11319800000000001           
         H16       1.0000    0.34240   0.85090   0.25820   Biso      1.000     H          0.11319800000000001           
         H17       1.0000    0.02690   0.31510   0.87420   Biso      1.000     H          0.1209    
         H18       1.0000    0.61640   0.63450   0.77260   Biso      1.000     H          0.112475  
         H19       1.0000    0.97310   0.68490   0.12580   Biso      1.000     H          0.120899  
         H20       1.0000    0.11030   0.57020   0.25730   Biso      1.000     H          0.109901  
         O1        1.0000    0.29980   0.14994   0.97457   Biso      1.000     O          -0.676613           
         O2        1.0000    0.19380   0.91006   0.87796   Biso      1.000     O          -0.559376           
         O3        1.0000    0.70020   0.85006   0.02543   Biso      1.000     O          -0.676613           
         O4        1.0000    0.30100   0.87948   0.09031   Biso      1.000     O          -0.61824  
         O5        1.0000    0.80620   0.08994   0.12204   Biso      1.000     O          -0.559376           
         O6        1.0000    0.42070   0.21120   0.12149   Biso      1.000     O          -0.48689499999999997          
         O7        1.0000    0.57930   0.78880   0.87851   Biso      1.000     O          -0.48689499999999997          
         O8        1.0000    0.69900   0.12052   0.90969   Biso      1.000     O          -0.61824 