
##########################################################################
#               Crystallographic Information Format file
#               Produced by PyCifRW module
#
#  This is a CIF file.  CIF has been adopted by the International
#  Union of Crystallography as the standard for data archiving and
#  transmission.
#
#  For information on this file format, follow the CIF links at
#  http://www.iucr.org
##########################################################################

data_image0

_cell_length_a                          5.2195
_cell_length_b                          10.5691
_cell_length_c                          15.3604
_cell_angle_alpha                       82.533
_cell_angle_beta                        86.657
_cell_angle_gamma                       83
_symmetry_space_group_name_H-M          'P 1'
_symmetry_int_tables_number             1
loop_
  _symmetry_equiv_pos_as_xyz
         'x, y, z' 
loop_
  _atom_site_label
  _atom_site_occupancy
  _atom_site_fract_x
  _atom_site_fract_y
  _atom_site_fract_z
  _atom_site_thermal_displace_type
  _atom_site_B_iso_or_equiv
  _atom_site_type_symbol
  _atom_site_charge
         C1        1.0000    0.98120   0.63200   0.48794   Biso      1.000     C          -0.195656           
         C2        1.0000    0.34780   0.82980   0.84798   Biso      1.000     C          0.624692  
         C3        1.0000    0.92160   0.43400   0.43355   Biso      1.000     C          0.027022000000000004          
         C4        1.0000    0.90400   0.56840   0.42158   Biso      1.000     C          0.036736000000000005          
         C5        1.0000    0.81670   0.64590   0.33771   Biso      1.000     C          0.07255199999999999           
         C6        1.0000    0.59290   0.73300   0.33656   Biso      1.000     C          -0.164171           
         C7        1.0000    0.50250   0.79690   0.25752   Biso      1.000     C          -0.103743           
         C8        1.0000    0.63990   0.77800   0.17890   Biso      1.000     C          -0.039925999999999996         
         C9        1.0000    0.87060   0.69660   0.18010   Biso      1.000     C          -0.08227899999999999          
         C10       1.0000    0.95580   0.62960   0.25867   Biso      1.000     C          -0.149693           
         C11       1.0000    0.53670   0.84210   0.09275   Biso      1.000     C          0.61403   
         C12       1.0000    0.83830   0.35910   0.36598   Biso      1.000     C          0.084575  
         C13       1.0000    0.60770   0.39850   0.32332   Biso      1.000     C          -0.13980499999999998          
         C14       1.0000    0.54360   0.33580   0.25558   Biso      1.000     C          -0.093751           
         C15       1.0000    0.70730   0.23210   0.22955   Biso      1.000     C          -0.062326           
         C16       1.0000    0.93250   0.18820   0.27462   Biso      1.000     C          -0.083741           
         C17       1.0000    0.99560   0.25110   0.34247   Biso      1.000     C          -0.14861  
         C18       1.0000    0.65220   0.17020   0.15202   Biso      1.000     C          0.624691  
         C19       1.0000    0.00440   0.74890   0.65753   Biso      1.000     C          -0.14861400000000002          
         C20       1.0000    0.06750   0.81180   0.72538   Biso      1.000     C          -0.083737           
         C21       1.0000    0.01880   0.36800   0.51206   Biso      1.000     C          -0.195656           
         C22       1.0000    0.12940   0.30340   0.81990   Biso      1.000     C          -0.08227899999999999          
         C23       1.0000    0.07840   0.56600   0.56645   Biso      1.000     C          0.027022000000000004          
         C24       1.0000    0.45640   0.66420   0.74442   Biso      1.000     C          -0.093753           
         C25       1.0000    0.09600   0.43160   0.57842   Biso      1.000     C          0.036736000000000005          
         C26       1.0000    0.18330   0.35410   0.66229   Biso      1.000     C          0.07255199999999999           
         C27       1.0000    0.40710   0.26700   0.66344   Biso      1.000     C          -0.164171           
         C28       1.0000    0.49750   0.20310   0.74248   Biso      1.000     C          -0.103743           
         C29       1.0000    0.36010   0.22200   0.82110   Biso      1.000     C          -0.039925999999999996         
         C30       1.0000    0.29270   0.76790   0.77045   Biso      1.000     C          -0.062327           
         C31       1.0000    0.04420   0.37040   0.74133   Biso      1.000     C          -0.149693           
         C32       1.0000    0.46330   0.15790   0.90725   Biso      1.000     C          0.61403   
         C33       1.0000    0.16170   0.64090   0.63402   Biso      1.000     C          0.084576  
         C34       1.0000    0.39230   0.60150   0.67668   Biso      1.000     C          -0.139803           
         Ca1       1.0000    0.00000   0.00000   0.00000   Biso      1.000     Ca          1.3916520000000001  
         H1        1.0000    0.40370   0.16960   0.07810   Biso      1.000     H          0.406179  
         H2        1.0000    0.96750   0.72320   0.47960   Biso      1.000     H          0.12116199999999999           
         H3        1.0000    0.14770   0.22060   0.37350   Biso      1.000     H          0.110252  
         H4        1.0000    0.95830   0.88460   0.74130   Biso      1.000     H          0.121773  
         H5        1.0000    0.04170   0.11540   0.25870   Biso      1.000     H          0.121773  
         H6        1.0000    0.85230   0.77940   0.62650   Biso      1.000     H          0.110253  
         H7        1.0000    0.50580   0.53130   0.65900   Biso      1.000     H          0.11276199999999999           
         H8        1.0000    0.38700   0.36360   0.22660   Biso      1.000     H          0.11340399999999999           
         H9        1.0000    0.03250   0.27680   0.52040   Biso      1.000     H          0.121163  
         H10       1.0000    0.49820   0.25140   0.60980   Biso      1.000     H          0.115879  
         H11       1.0000    0.49420   0.46870   0.34100   Biso      1.000     H          0.11276199999999999           
         H12       1.0000    0.59630   0.83040   0.92190   Biso      1.000     H          0.406179  
         H13       1.0000    0.88950   0.42800   0.74120   Biso      1.000     H          0.11066300000000001           
         H14       1.0000    0.50180   0.74860   0.39020   Biso      1.000     H          0.115879  
         H15       1.0000    0.65350   0.14640   0.74290   Biso      1.000     H          0.114069  
         H16       1.0000    0.34650   0.85360   0.25710   Biso      1.000     H          0.114069  
         H17       1.0000    0.03030   0.31320   0.87300   Biso      1.000     H          0.12100799999999999           
         H18       1.0000    0.61300   0.63640   0.77340   Biso      1.000     H          0.11340399999999999           
         H19       1.0000    0.96970   0.68680   0.12700   Biso      1.000     H          0.12100699999999999           
         H20       1.0000    0.11050   0.57200   0.25880   Biso      1.000     H          0.11066300000000001           
         O1        1.0000    0.30320   0.14919   0.97339   Biso      1.000     O          -0.671733           
         O2        1.0000    0.18790   0.90735   0.87983   Biso      1.000     O          -0.5585100000000001           
         O3        1.0000    0.69680   0.85081   0.02661   Biso      1.000     O          -0.671733           
         O4        1.0000    0.30150   0.87986   0.08995   Biso      1.000     O          -0.622333           
         O5        1.0000    0.81210   0.09265   0.12017   Biso      1.000     O          -0.5585100000000001           
         O6        1.0000    0.42360   0.20831   0.12123   Biso      1.000     O          -0.486306           
         O7        1.0000    0.57640   0.79169   0.87877   Biso      1.000     O          -0.486306           
         O8        1.0000    0.69850   0.12014   0.91005   Biso      1.000     O          -0.622333 