
##########################################################################
#               Crystallographic Information Format file
#               Produced by PyCifRW module
#
#  This is a CIF file.  CIF has been adopted by the International
#  Union of Crystallography as the standard for data archiving and
#  transmission.
#
#  For information on this file format, follow the CIF links at
#  http://www.iucr.org
##########################################################################

data_image0

_cell_length_a                          11.0031
_cell_length_b                          11.2217
_cell_length_c                          11.6959
_cell_angle_alpha                       69.193
_cell_angle_beta                        79.676
_cell_angle_gamma                       81.008
_symmetry_space_group_name_H-M          'P 1'
_symmetry_int_tables_number             1
loop_
  _symmetry_equiv_pos_as_xyz
         'x, y, z' 
loop_
  _atom_site_label
  _atom_site_occupancy
  _atom_site_fract_x
  _atom_site_fract_y
  _atom_site_fract_z
  _atom_site_thermal_displace_type
  _atom_site_B_iso_or_equiv
  _atom_site_type_symbol
  _atom_site_charge
         C1        1.0000    0.33680   0.41210   0.47080   Biso      1.000     C          -0.141688           
         C2        1.0000    0.72500   0.50840   0.46950   Biso      1.000     C          -0.10712  
         C3        1.0000    0.27500   0.49160   0.53050   Biso      1.000     C          -0.107097           
         C4        1.0000    0.22300   0.61750   0.46270   Biso      1.000     C          -0.036593           
         C5        1.0000    0.15780   0.70350   0.52960   Biso      1.000     C          0.605334  
         C6        1.0000    0.23870   0.65320   0.33290   Biso      1.000     C          -0.100017           
         C7        1.0000    0.66320   0.58790   0.52920   Biso      1.000     C          -0.141681           
         C8        1.0000    0.29960   0.56930   0.27550   Biso      1.000     C          -0.15495  
         C9        1.0000    0.65060   0.55400   0.65830   Biso      1.000     C          0.094012  
         C10       1.0000    0.60850   0.08430   0.11200   Biso      1.000     C          0.09125499999999999           
         C11       1.0000    0.64050   0.10040   0.98730   Biso      1.000     C          -0.13530599999999998          
         C12       1.0000    0.39980   0.78180   0.75260   Biso      1.000     C          -0.04308  
         C13       1.0000    0.70730   0.01120   0.94670   Biso      1.000     C          -0.09481200000000001          
         C14       1.0000    0.75600   0.89280   0.02720   Biso      1.000     C          -0.036125           
         C15       1.0000    0.85080   0.80210   0.98390   Biso      1.000     C          0.614759  
         C16       1.0000    0.72270   0.87090   0.15190   Biso      1.000     C          -0.103072           
         C17       1.0000    0.58270   0.64030   0.72170   Biso      1.000     C          0.047554  
         C18       1.0000    0.65520   0.96610   0.19470   Biso      1.000     C          -0.154324           
         C19       1.0000    0.34480   0.03390   0.80530   Biso      1.000     C          -0.154325           
         C20       1.0000    0.77340   0.63400   0.81710   Biso      1.000     C          0.630369  
         C21       1.0000    0.63780   0.66970   0.80950   Biso      1.000     C          -0.045658           
         C22       1.0000    0.57030   0.75570   0.86500   Biso      1.000     C          -0.166233           
         C23       1.0000    0.45290   0.81270   0.84040   Biso      1.000     C          0.051816999999999995          
         C24       1.0000    0.46440   0.69520   0.70080   Biso      1.000     C          -0.164224           
         C25       1.0000    0.34940   0.44600   0.34170   Biso      1.000     C          0.094015  
         C26       1.0000    0.27270   0.83850   0.71520   Biso      1.000     C          0.6118140000000001  
         C27       1.0000    0.53560   0.30480   0.29920   Biso      1.000     C          -0.164232           
         C28       1.0000    0.35950   0.89960   0.01270   Biso      1.000     C          -0.13530999999999999          
         C29       1.0000    0.39150   0.91570   0.88800   Biso      1.000     C          0.091254  
         C30       1.0000    0.14920   0.19790   0.01610   Biso      1.000     C          0.614758  
         C31       1.0000    0.70040   0.43070   0.72450   Biso      1.000     C          -0.15496600000000002          
         C32       1.0000    0.27730   0.12910   0.84810   Biso      1.000     C          -0.103082           
         C33       1.0000    0.76130   0.34680   0.66710   Biso      1.000     C          -0.10001399999999999          
         C34       1.0000    0.84220   0.29650   0.47040   Biso      1.000     C          0.605342  
         C35       1.0000    0.24400   0.10720   0.97280   Biso      1.000     C          -0.036124           
         C36       1.0000    0.72730   0.16150   0.28480   Biso      1.000     C          0.611815  
         C37       1.0000    0.54710   0.18730   0.15960   Biso      1.000     C          0.051815  
         C38       1.0000    0.42970   0.24430   0.13500   Biso      1.000     C          -0.166226           
         C39       1.0000    0.77700   0.38250   0.53730   Biso      1.000     C          -0.036596           
         C40       1.0000    0.36220   0.33030   0.19050   Biso      1.000     C          -0.045653           
         C41       1.0000    0.22660   0.36600   0.18290   Biso      1.000     C          0.630364  
         C42       1.0000    0.41730   0.35970   0.27830   Biso      1.000     C          0.047559  
         C43       1.0000    0.60020   0.21820   0.24740   Biso      1.000     C          -0.043072000000000006         
         C44       1.0000    0.29270   0.98880   0.05330   Biso      1.000     C          -0.094814           
         H1        1.0000    0.60630   0.77550   0.92130   Biso      1.000     H          0.12068399999999999           
         H2        1.0000    0.25440   0.20860   0.79180   Biso      1.000     H          0.114014  
         H3        1.0000    0.79260   0.26560   0.71410   Biso      1.000     H          0.118022  
         H4        1.0000    0.38640   0.82270   0.07030   Biso      1.000     H          0.11343699999999998           
         H5        1.0000    0.69180   0.40510   0.81010   Biso      1.000     H          0.115041  
         H6        1.0000    0.73400   0.53540   0.38380   Biso      1.000     H          0.118226  
         H7        1.0000    0.42610   0.67200   0.64830   Biso      1.000     H          0.12243699999999999           
         H8        1.0000    0.62780   0.66760   0.48340   Biso      1.000     H          0.11747200000000001           
         H9        1.0000    0.27700   0.97310   0.13790   Biso      1.000     H          0.111643  
         H10       1.0000    0.64050   0.95180   0.27910   Biso      1.000     H          0.114693  
         H11       1.0000    0.35950   0.04820   0.72090   Biso      1.000     H          0.11468699999999998           
         H12       1.0000    0.26600   0.46460   0.61620   Biso      1.000     H          0.11822300000000001           
         H13       1.0000    0.01950   0.01910   0.33160   Biso      1.000     H          0.42934700000000003           
         H14       1.0000    0.86530   0.43710   0.11950   Biso      1.000     H          0.439492  
         H15       1.0000    0.39370   0.22450   0.07870   Biso      1.000     H          0.12068599999999999           
         H16       1.0000    0.57390   0.32800   0.35170   Biso      1.000     H          0.12244400000000001           
         H17       1.0000    0.13470   0.56290   0.88050   Biso      1.000     H          0.439492  
         H18       1.0000    0.37220   0.33240   0.51660   Biso      1.000     H          0.117478  
         H19       1.0000    0.98050   0.98090   0.66840   Biso      1.000     H          0.429349  
         H20       1.0000    0.20740   0.73440   0.28590   Biso      1.000     H          0.11802699999999999           
         H21       1.0000    0.30820   0.59490   0.18990   Biso      1.000     H          0.11504400000000001           
         H22       1.0000    0.61360   0.17730   0.92970   Biso      1.000     H          0.11344100000000001           
         H23       1.0000    0.72300   0.02690   0.86210   Biso      1.000     H          0.111648  
         H24       1.0000    0.74560   0.79140   0.20820   Biso      1.000     H          0.114022  
         Ni1       1.0000    0.86347   0.01760   0.50069   Biso      1.000     Ni          0.958492  
         Ni2       1.0000    0.02843   0.57350   0.07488   Biso      1.000     Ni          0.961448  
         Ni3       1.0000    0.98467   0.24530   0.23813   Biso      1.000     Ni          1.0690540000000002  
         Ni4       1.0000    0.13653   0.98240   0.49931   Biso      1.000     Ni          0.958458  
         Ni5       1.0000    0.97157   0.42650   0.92512   Biso      1.000     Ni          0.9614739999999999  
         Ni6       1.0000    0.01533   0.75470   0.76187   Biso      1.000     Ni          1.069044  
         O1        1.0000    0.79910   0.53120   0.90610   Biso      1.000     O          -0.576956           
         O2        1.0000    0.84810   0.70280   0.74150   Biso      1.000     O          -0.556901           
         O3        1.0000    0.01310   0.07090   0.37100   Biso      1.000     O          -0.8957510000000001           
         O4        1.0000    0.86040   0.17820   0.54440   Biso      1.000     O          -0.570697           
         O5        1.0000    0.94240   0.41650   0.10330   Biso      1.000     O          -0.871302           
         O6        1.0000    0.88420   0.33270   0.35950   Biso      1.000     O          -0.5421229999999999           
         O7        1.0000    0.82390   0.18830   0.20390   Biso      1.000     O          -0.573067           
         O8        1.0000    0.72680   0.09880   0.39790   Biso      1.000     O          -0.565663           
         O9        1.0000    0.20090   0.46880   0.09390   Biso      1.000     O          -0.576965           
         O10       1.0000    0.15190   0.29720   0.25850   Biso      1.000     O          -0.556902           
         O11       1.0000    0.11580   0.66730   0.64050   Biso      1.000     O          -0.542114           
         O12       1.0000    0.90840   0.84450   0.87890   Biso      1.000     O          -0.551557           
         O13       1.0000    0.86440   0.68990   0.05710   Biso      1.000     O          -0.5832390000000001           
         O14       1.0000    0.09160   0.15550   0.12110   Biso      1.000     O          -0.551562           
         O15       1.0000    0.13560   0.31010   0.94290   Biso      1.000     O          -0.583234           
         O16       1.0000    0.05760   0.58350   0.89670   Biso      1.000     O          -0.871297           
         O17       1.0000    0.17610   0.81170   0.79610   Biso      1.000     O          -0.5730609999999999           
         O18       1.0000    0.98690   0.92910   0.62900   Biso      1.000     O          -0.895742           
         O19       1.0000    0.13960   0.82180   0.45560   Biso      1.000     O          -0.570673           
         O20       1.0000    0.27320   0.90120   0.60210   Biso      1.000     O          -0.565655 