
##########################################################################
#               Crystallographic Information Format file
#               Produced by PyCifRW module
#
#  This is a CIF file.  CIF has been adopted by the International
#  Union of Crystallography as the standard for data archiving and
#  transmission.
#
#  For information on this file format, follow the CIF links at
#  http://www.iucr.org
##########################################################################

data_image0

_cell_length_a                          14.2324
_cell_length_b                          15.4777
_cell_length_c                          15.4777
_cell_angle_alpha                       68.9567
_cell_angle_beta                        72.1507
_cell_angle_gamma                       107.849
_symmetry_space_group_name_H-M          'P 1'
_symmetry_int_tables_number             1
loop_
  _symmetry_equiv_pos_as_xyz
         'x, y, z' 
loop_
  _atom_site_label
  _atom_site_occupancy
  _atom_site_fract_x
  _atom_site_fract_y
  _atom_site_fract_z
  _atom_site_thermal_displace_type
  _atom_site_B_iso_or_equiv
  _atom_site_type_symbol
  _atom_site_charge
         C1        1.0000    0.08469   0.70366   0.18709   Biso      1.000     C          -0.084403           
         C2        1.0000    0.99097   0.69506   0.25775   Biso      1.000     C          -0.098818           
         C3        1.0000    0.97132   0.66300   0.36033   Biso      1.000     C          -0.08498  
         C4        1.0000    0.04812   0.64260   0.39087   Biso      1.000     C          -0.133796           
         C5        1.0000    0.14418   0.65292   0.31893   Biso      1.000     C          0.019341  
         C6        1.0000    0.22647   0.63157   0.34960   Biso      1.000     C          0.332028  
         C7        1.0000    0.42259   0.53318   0.33071   Biso      1.000     C          0.606294  
         C8        1.0000    0.34981   0.58060   0.35854   Biso      1.000     C          -0.026978           
         C9        1.0000    0.33278   0.62404   0.42289   Biso      1.000     C          -0.02732  
         C10       1.0000    0.37746   0.63939   0.49392   Biso      1.000     C          0.608763  
         C11       1.0000    0.65019   0.41940   0.64146   Biso      1.000     C          -0.026974           
         C12       1.0000    0.47819   0.09907   0.68394   Biso      1.000     C          -0.130855           
         C13       1.0000    0.29591   0.04719   0.69506   Biso      1.000     C          -0.101067           
         C14       1.0000    0.30832   0.97667   0.66300   Biso      1.000     C          -0.08441  
         C15       1.0000    0.40552   0.96653   0.64260   Biso      1.000     C          -0.135689           
         C16       1.0000    0.49126   0.02815   0.65292   Biso      1.000     C          0.019147  
         C17       1.0000    0.59490   0.01883   0.63157   Biso      1.000     C          0.333392  
         C18       1.0000    0.88941   0.13611   0.53318   Biso      1.000     C          0.60396   
         C19       1.0000    0.76921   0.06086   0.58060   Biso      1.000     C          -0.02543  
         C20       1.0000    0.70874   0.95307   0.62404   Biso      1.000     C          -0.027105           
         C21       1.0000    0.73807   0.86669   0.63939   Biso      1.000     C          0.607662  
         C22       1.0000    0.38103   0.10925   0.70366   Biso      1.000     C          -0.082456           
         C23       1.0000    0.37912   0.21699   0.09907   Biso      1.000     C          -0.130914           
         C24       1.0000    0.16213   0.68394   0.21699   Biso      1.000     C          -0.129689           
         C25       1.0000    0.24433   0.57711   0.04693   Biso      1.000     C          -0.027111           
         C26       1.0000    0.52181   0.90093   0.31606   Biso      1.000     C          -0.130864           
         C27       1.0000    0.61897   0.89075   0.29634   Biso      1.000     C          -0.082473           
         C28       1.0000    0.70409   0.95281   0.30494   Biso      1.000     C          -0.101067           
         C29       1.0000    0.69168   0.02333   0.33700   Biso      1.000     C          -0.084426           
         C30       1.0000    0.59448   0.03347   0.35740   Biso      1.000     C          -0.135699           
         C31       1.0000    0.50874   0.97185   0.34708   Biso      1.000     C          0.019147  
         C32       1.0000    0.40510   0.98117   0.36843   Biso      1.000     C          0.33338   
         C33       1.0000    0.11059   0.86389   0.46682   Biso      1.000     C          0.603948  
         C34       1.0000    0.23079   0.93914   0.41940   Biso      1.000     C          -0.025437           
         C35       1.0000    0.12862   0.50608   0.13331   Biso      1.000     C          0.608279  
         C36       1.0000    0.29126   0.04693   0.37596   Biso      1.000     C          -0.027116           
         C37       1.0000    0.62088   0.78301   0.90093   Biso      1.000     C          -0.130911           
         C38       1.0000    0.72822   0.81291   0.89075   Biso      1.000     C          -0.082602           
         C39       1.0000    0.75128   0.74225   0.95281   Biso      1.000     C          -0.09982  
         C40       1.0000    0.66835   0.63967   0.02333   Biso      1.000     C          -0.082903           
         C41       1.0000    0.56101   0.60913   0.03347   Biso      1.000     C          -0.135539           
         C42       1.0000    0.53689   0.68107   0.97185   Biso      1.000     C          0.019851  
         C43       1.0000    0.42393   0.65040   0.98117   Biso      1.000     C          0.332264  
         C44       1.0000    0.24670   0.66929   0.86389   Biso      1.000     C          0.605216  
         C45       1.0000    0.29165   0.64146   0.93914   Biso      1.000     C          -0.026866           
         C46       1.0000    0.26193   0.13331   0.36061   Biso      1.000     C          0.607662  
         C47       1.0000    0.27178   0.18709   0.10925   Biso      1.000     C          -0.08261  
         C48       1.0000    0.24872   0.25775   0.04719   Biso      1.000     C          -0.09983  
         C49       1.0000    0.33165   0.36033   0.97667   Biso      1.000     C          -0.082924           
         C50       1.0000    0.83787   0.31606   0.78301   Biso      1.000     C          -0.129676           
         C51       1.0000    0.91531   0.29634   0.81291   Biso      1.000     C          -0.084395           
         C52       1.0000    0.00903   0.30494   0.74225   Biso      1.000     C          -0.098816           
         C53       1.0000    0.02868   0.33700   0.63967   Biso      1.000     C          -0.084991           
         C54       1.0000    0.95188   0.35740   0.60913   Biso      1.000     C          -0.133805           
         C55       1.0000    0.85582   0.34708   0.68107   Biso      1.000     C          0.01934   
         C56       1.0000    0.77353   0.36843   0.65040   Biso      1.000     C          0.332028  
         C57       1.0000    0.57741   0.46682   0.66929   Biso      1.000     C          0.606284  
         C58       1.0000    0.62254   0.36061   0.50608   Biso      1.000     C          0.608767  
         C59       1.0000    0.66722   0.37596   0.57711   Biso      1.000     C          -0.027329           
         C60       1.0000    0.43899   0.39087   0.96653   Biso      1.000     C          -0.135546           
         C61       1.0000    0.46311   0.31893   0.02815   Biso      1.000     C          0.019842  
         C62       1.0000    0.57607   0.34960   0.01883   Biso      1.000     C          0.332252  
         C63       1.0000    0.75330   0.33071   0.13611   Biso      1.000     C          0.605208  
         C64       1.0000    0.70835   0.35854   0.06086   Biso      1.000     C          -0.026877           
         C65       1.0000    0.75567   0.42289   0.95307   Biso      1.000     C          -0.027126           
         C66       1.0000    0.87138   0.49392   0.86669   Biso      1.000     C          0.608266  
         H1        1.0000    0.09320   0.34490   0.59120   Biso      1.000     H          0.106397  
         H2        1.0000    0.25170   0.93610   0.65510   Biso      1.000     H          0.107003  
         H3        1.0000    0.41330   0.91860   0.62200   Biso      1.000     H          0.109762  
         H4        1.0000    0.39450   0.16820   0.14010   Biso      1.000     H          0.10989   
         H5        1.0000    0.21540   0.11890   0.15830   Biso      1.000     H          0.107811  
         H6        1.0000    0.77370   0.30830   0.83180   Biso      1.000     H          0.110215  
         H7        1.0000    0.31560   0.40880   0.93610   Biso      1.000     H          0.105514  
         H8        1.0000    0.49470   0.45940   0.91860   Biso      1.000     H          0.109523  
         H9        1.0000    0.23000   0.05230   0.71070   Biso      1.000     H          0.106107  
         H10       1.0000    0.17770   0.23700   0.05230   Biso      1.000     H          0.105245  
         H11       1.0000    0.05930   0.28930   0.76300   Biso      1.000     H          0.105122  
         H12       1.0000    0.37370   0.15830   0.72280   Biso      1.000     H          0.107717  
         H13       1.0000    0.03530   0.62200   0.45940   Biso      1.000     H          0.108886  
         H14       1.0000    0.96470   0.37800   0.54060   Biso      1.000     H          0.108882  
         H15       1.0000    0.46540   0.85990   0.30830   Biso      1.000     H          0.110317  
         H16       1.0000    0.62630   0.84170   0.27720   Biso      1.000     H          0.107708  
         H17       1.0000    0.77000   0.94770   0.28930   Biso      1.000     H          0.106089  
         H18       1.0000    0.74830   0.06390   0.34490   Biso      1.000     H          0.106994  
         H19       1.0000    0.58670   0.08140   0.37800   Biso      1.000     H          0.109753  
         H20       1.0000    0.60550   0.83180   0.85990   Biso      1.000     H          0.109904  
         H21       1.0000    0.78460   0.88110   0.84170   Biso      1.000     H          0.107828  
         H22       1.0000    0.82230   0.76300   0.94770   Biso      1.000     H          0.105261  
         H23       1.0000    0.68440   0.59120   0.06390   Biso      1.000     H          0.105522  
         H24       1.0000    0.50530   0.54060   0.08140   Biso      1.000     H          0.109534  
         H25       1.0000    0.90350   0.27720   0.88110   Biso      1.000     H          0.107927  
         H26       1.0000    0.09650   0.72280   0.11890   Biso      1.000     H          0.107934  
         H27       1.0000    0.94070   0.71070   0.23700   Biso      1.000     H          0.105122  
         H28       1.0000    0.90680   0.65510   0.40880   Biso      1.000     H          0.106395  
         H29       1.0000    0.53460   0.14010   0.69170   Biso      1.000     H          0.110327  
         H30       1.0000    0.22630   0.69170   0.16820   Biso      1.000     H          0.110221  
         Mn1       1.0000    0.51056   0.24303   0.27484   Biso      1.000     Mn          0.969999  
         Mn2       1.0000    0.50000   0.50000   0.50000   Biso      1.000     Mn          1.144107  
         Mn3       1.0000    0.00000   0.00000   0.50000   Biso      1.000     Mn          1.143989  
         Mn4       1.0000    0.00000   0.50000   0.00000   Biso      1.000     Mn          1.144616  
         Mn5       1.0000    0.73247   0.51787   0.75697   Biso      1.000     Mn          0.970428  
         Mn6       1.0000    0.21460   0.72516   0.51787   Biso      1.000     Mn          0.970118  
         Mn7       1.0000    0.48944   0.75697   0.72516   Biso      1.000     Mn          0.970016  
         Mn8       1.0000    0.26753   0.48213   0.24303   Biso      1.000     Mn          0.97053   
         Mn9       1.0000    0.78540   0.27484   0.48213   Biso      1.000     Mn          0.970214  
         N1        1.0000    0.74599   0.34369   0.58369   Biso      1.000     N          -0.409432           
         N2        1.0000    0.71878   0.41490   0.68682   Biso      1.000     N          -0.401542           
         N3        1.0000    0.40230   0.07262   0.34369   Biso      1.000     N          -0.409425           
         N4        1.0000    0.30388   0.89828   0.41490   Biso      1.000     N          -0.402595           
         N5        1.0000    0.40560   0.68682   0.89828   Biso      1.000     N          -0.401601           
         N6        1.0000    0.32968   0.58369   0.07262   Biso      1.000     N          -0.409171           
         N7        1.0000    0.28122   0.58510   0.31318   Biso      1.000     N          -0.401573           
         N8        1.0000    0.59770   0.92738   0.65631   Biso      1.000     N          -0.40942  
         N9        1.0000    0.69612   0.10172   0.58510   Biso      1.000     N          -0.4026   
         N10       1.0000    0.67032   0.41631   0.92738   Biso      1.000     N          -0.40916  
         N11       1.0000    0.59440   0.31318   0.10172   Biso      1.000     N          -0.401606           
         N12       1.0000    0.25401   0.65631   0.41631   Biso      1.000     N          -0.409406           
         O1        1.0000    0.11965   0.46148   0.22416   Biso      1.000     O          -0.550046           
         O2        1.0000    0.14540   0.64619   0.89608   Biso      1.000     O          -0.584946           
         O3        1.0000    0.31590   0.71877   0.76838   Biso      1.000     O          -0.533704           
         O4        1.0000    0.16448   0.11977   0.38949   Biso      1.000     O          -0.580262           
         O5        1.0000    0.08428   0.76838   0.51285   Biso      1.000     O          -0.533478           
         O6        1.0000    0.04148   0.89608   0.45773   Biso      1.000     O          -0.584637           
         O7        1.0000    0.55397   0.38949   0.49074   Biso      1.000     O          -0.580679           
         O8        1.0000    0.65817   0.31436   0.46148   Biso      1.000     O          -0.550093           
         O9        1.0000    0.04471   0.49074   0.11977   Biso      1.000     O          -0.581009           
         O10       1.0000    0.34381   0.22416   0.31436   Biso      1.000     O          -0.549795           
         O11       1.0000    0.40287   0.48715   0.28123   Biso      1.000     O          -0.534154           
         O12       1.0000    0.88035   0.53852   0.77584   Biso      1.000     O          -0.550047           
         O13       1.0000    0.34183   0.68564   0.53852   Biso      1.000     O          -0.550088           
         O14       1.0000    0.44603   0.61051   0.50926   Biso      1.000     O          -0.580686           
         O15       1.0000    0.91572   0.23162   0.48715   Biso      1.000     O          -0.533477           
         O16       1.0000    0.95852   0.10392   0.54227   Biso      1.000     O          -0.58462  
         O17       1.0000    0.65619   0.77584   0.68564   Biso      1.000     O          -0.549774           
         O18       1.0000    0.83552   0.88023   0.61051   Biso      1.000     O          -0.580241           
         O19       1.0000    0.68410   0.28123   0.23162   Biso      1.000     O          -0.533719           
         O20       1.0000    0.85460   0.35381   0.10392   Biso      1.000     O          -0.584961           
         O21       1.0000    0.49921   0.45773   0.64619   Biso      1.000     O          -0.585248           
         O22       1.0000    0.95529   0.50926   0.88023   Biso      1.000     O          -0.581022           
         O23       1.0000    0.50079   0.54227   0.35381   Biso      1.000     O          -0.585244           
         O24       1.0000    0.59713   0.51285   0.71877   Biso      1.000     O          -0.534147 