
##########################################################################
#               Crystallographic Information Format file
#               Produced by PyCifRW module
#
#  This is a CIF file.  CIF has been adopted by the International
#  Union of Crystallography as the standard for data archiving and
#  transmission.
#
#  For information on this file format, follow the CIF links at
#  http://www.iucr.org
##########################################################################

data_image0

_cell_length_a                          8.0098
_cell_length_b                          13.813
_cell_length_c                          22.126
_cell_angle_alpha                       90
_cell_angle_beta                        98.25
_cell_angle_gamma                       90
_symmetry_space_group_name_H-M          'P 1'
_symmetry_int_tables_number             1
loop_
  _symmetry_equiv_pos_as_xyz
         'x, y, z' 
loop_
  _atom_site_label
  _atom_site_occupancy
  _atom_site_fract_x
  _atom_site_fract_y
  _atom_site_fract_z
  _atom_site_thermal_displace_type
  _atom_site_B_iso_or_equiv
  _atom_site_type_symbol
  _atom_site_charge
         C1        1.0000    0.59540   0.66720   0.39490   Biso      1.000     C          0.630383  
         C2        1.0000    0.05390   0.28570   0.96850   Biso      1.000     C          -0.146571           
         C3        1.0000    0.09670   0.34350   0.01950   Biso      1.000     C          0.055393  
         C4        1.0000    0.06300   0.31160   0.07650   Biso      1.000     C          -0.126299           
         C5        1.0000    0.99350   0.22140   0.08200   Biso      1.000     C          -0.01948  
         C6        1.0000    0.94980   0.16360   0.03060   Biso      1.000     C          -0.144803           
         C7        1.0000    0.97810   0.19550   0.97380   Biso      1.000     C          -0.07714299999999999          
         C8        1.0000    0.93130   0.13270   0.91730   Biso      1.000     C          0.646093  
         C9        1.0000    0.64860   0.07790   0.75200   Biso      1.000     C          0.5810649999999999  
         C10       1.0000    0.35140   0.92210   0.24800   Biso      1.000     C          0.5810649999999999  
         C11       1.0000    0.33010   0.93550   0.35980   Biso      1.000     C          -0.07615  
         C12       1.0000    0.39100   0.88650   0.31210   Biso      1.000     C          0.020628999999999998          
         C13       1.0000    0.48200   0.80130   0.32490   Biso      1.000     C          -0.06274099999999999          
         C14       1.0000    0.50630   0.76110   0.38350   Biso      1.000     C          -0.068196           
         C15       1.0000    0.44370   0.80970   0.43010   Biso      1.000     C          -0.168991           
         C16       1.0000    0.35870   0.89980   0.41930   Biso      1.000     C          0.02424   
         C17       1.0000    0.29930   0.95110   0.46920   Biso      1.000     C          0.290991  
         C18       1.0000    0.18260   0.06300   0.51430   Biso      1.000     C          0.270426  
         C19       1.0000    0.96770   0.31610   0.64460   Biso      1.000     C          0.561945  
         C20       1.0000    0.05390   0.21430   0.46850   Biso      1.000     C          -0.146571           
         C21       1.0000    0.09670   0.15650   0.51950   Biso      1.000     C          0.055393  
         C22       1.0000    0.06300   0.18840   0.57650   Biso      1.000     C          -0.126299           
         C23       1.0000    0.99350   0.27860   0.58200   Biso      1.000     C          -0.01948  
         C24       1.0000    0.94980   0.33640   0.53060   Biso      1.000     C          -0.144803           
         C25       1.0000    0.96770   0.18390   0.14460   Biso      1.000     C          0.5619460000000001  
         C26       1.0000    0.97810   0.30450   0.47380   Biso      1.000     C          -0.07714299999999999          
         C27       1.0000    0.18260   0.43700   0.01430   Biso      1.000     C          0.270426  
         C28       1.0000    0.35870   0.60020   0.91930   Biso      1.000     C          0.02424   
         C29       1.0000    0.66990   0.06450   0.64020   Biso      1.000     C          -0.07615  
         C30       1.0000    0.60900   0.11350   0.68790   Biso      1.000     C          0.020628999999999998          
         C31       1.0000    0.51800   0.19870   0.67510   Biso      1.000     C          -0.06274099999999999          
         C32       1.0000    0.49370   0.23890   0.61650   Biso      1.000     C          -0.068196           
         C33       1.0000    0.55630   0.19030   0.56990   Biso      1.000     C          -0.168991           
         C34       1.0000    0.64130   0.10020   0.58070   Biso      1.000     C          0.02424   
         C35       1.0000    0.70070   0.04890   0.53080   Biso      1.000     C          0.290991  
         C36       1.0000    0.81740   0.93700   0.48570   Biso      1.000     C          0.270426  
         C37       1.0000    0.03230   0.68390   0.35540   Biso      1.000     C          0.5619460000000001  
         C38       1.0000    0.94610   0.78570   0.53150   Biso      1.000     C          -0.146571           
         C39       1.0000    0.90330   0.84350   0.48050   Biso      1.000     C          0.055393  
         C40       1.0000    0.93700   0.81160   0.42350   Biso      1.000     C          -0.126299           
         C41       1.0000    0.00650   0.72140   0.41800   Biso      1.000     C          -0.01948  
         C42       1.0000    0.05020   0.66360   0.46940   Biso      1.000     C          -0.144803           
         C43       1.0000    0.02190   0.69550   0.52620   Biso      1.000     C          -0.07714299999999999          
         C44       1.0000    0.06870   0.63270   0.58270   Biso      1.000     C          0.646093  
         C45       1.0000    0.59540   0.83280   0.89490   Biso      1.000     C          0.630383  
         C46       1.0000    0.35140   0.57790   0.74800   Biso      1.000     C          0.5810649999999999  
         C47       1.0000    0.33010   0.56450   0.85980   Biso      1.000     C          -0.07615  
         C48       1.0000    0.39100   0.61350   0.81210   Biso      1.000     C          0.020630000000000003          
         C49       1.0000    0.48200   0.69870   0.82490   Biso      1.000     C          -0.06274099999999999          
         C50       1.0000    0.50630   0.73890   0.88350   Biso      1.000     C          -0.068196           
         C51       1.0000    0.44370   0.69030   0.93010   Biso      1.000     C          -0.168991           
         C52       1.0000    0.29930   0.54890   0.96920   Biso      1.000     C          0.290991  
         C53       1.0000    0.93130   0.36730   0.41730   Biso      1.000     C          0.646094  
         C54       1.0000    0.40460   0.33280   0.60510   Biso      1.000     C          0.630383  
         C55       1.0000    0.81740   0.56300   0.98570   Biso      1.000     C          0.270426  
         C56       1.0000    0.49370   0.26110   0.11650   Biso      1.000     C          -0.068196           
         C57       1.0000    0.55630   0.30970   0.06990   Biso      1.000     C          -0.168991           
         C58       1.0000    0.64130   0.39980   0.08070   Biso      1.000     C          0.02424   
         C59       1.0000    0.70070   0.45110   0.03080   Biso      1.000     C          0.290991  
         C60       1.0000    0.03230   0.81610   0.85540   Biso      1.000     C          0.561945  
         C61       1.0000    0.94610   0.71430   0.03150   Biso      1.000     C          -0.146571           
         C62       1.0000    0.90330   0.65650   0.98050   Biso      1.000     C          0.055393  
         C63       1.0000    0.66990   0.43550   0.14020   Biso      1.000     C          -0.07615  
         C64       1.0000    0.93700   0.68840   0.92350   Biso      1.000     C          -0.126299           
         C65       1.0000    0.64860   0.42210   0.25200   Biso      1.000     C          0.5810649999999999  
         C66       1.0000    0.51800   0.30130   0.17510   Biso      1.000     C          -0.06274199999999999          
         C67       1.0000    0.00650   0.77860   0.91800   Biso      1.000     C          -0.01948  
         C68       1.0000    0.05020   0.83640   0.96940   Biso      1.000     C          -0.144803           
         C69       1.0000    0.40460   0.16720   0.10510   Biso      1.000     C          0.630383  
         C70       1.0000    0.60900   0.38650   0.18790   Biso      1.000     C          0.020630000000000003          
         C71       1.0000    0.02190   0.80450   0.02620   Biso      1.000     C          -0.07714299999999999          
         C72       1.0000    0.06870   0.86730   0.08270   Biso      1.000     C          0.646094  
         H1        1.0000    0.90130   0.10320   0.03460   Biso      1.000     H          0.117031  
         H2        1.0000    0.73040   0.00730   0.64830   Biso      1.000     H          0.13631400000000002           
         H3        1.0000    0.54270   0.28310   0.03090   Biso      1.000     H          0.10533599999999999           
         H4        1.0000    0.08750   0.35120   0.11060   Biso      1.000     H          0.145229  
         H5        1.0000    0.47230   0.22960   0.70630   Biso      1.000     H          0.135722  
         H6        1.0000    0.07040   0.81310   0.15090   Biso      1.000     H          0.472206  
         H7        1.0000    0.07560   0.30710   0.93050   Biso      1.000     H          0.126342  
         H8        1.0000    0.54270   0.21690   0.53090   Biso      1.000     H          0.10533599999999999           
         H9        1.0000    0.92440   0.80710   0.56950   Biso      1.000     H          0.126342  
         H10       1.0000    0.92440   0.69290   0.06950   Biso      1.000     H          0.126343  
         H11       1.0000    0.47700   0.38790   0.54490   Biso      1.000     H          0.453175  
         H12       1.0000    0.45730   0.71690   0.96910   Biso      1.000     H          0.10533599999999999           
         H13       1.0000    0.91250   0.85120   0.38940   Biso      1.000     H          0.145229  
         H14       1.0000    0.91250   0.64880   0.88940   Biso      1.000     H          0.145229  
         H15       1.0000    0.64250   0.37640   0.95630   Biso      1.000     H          0.314636  
         H16       1.0000    0.52770   0.72960   0.79370   Biso      1.000     H          0.135722  
         H17       1.0000    0.09870   0.60320   0.46540   Biso      1.000     H          0.11703   
         H18       1.0000    0.64250   0.12360   0.45630   Biso      1.000     H          0.314636  
         H19       1.0000    0.26960   0.50730   0.85170   Biso      1.000     H          0.13631400000000002           
         H20       1.0000    0.09870   0.89680   0.96540   Biso      1.000     H          0.117031  
         H21       1.0000    0.07040   0.68690   0.65090   Biso      1.000     H          0.472207  
         H22       1.0000    0.47700   0.11210   0.04490   Biso      1.000     H          0.453175  
         H23       1.0000    0.35750   0.87640   0.54370   Biso      1.000     H          0.314636  
         H24       1.0000    0.52770   0.77040   0.29370   Biso      1.000     H          0.135722  
         H25       1.0000    0.45730   0.78310   0.46910   Biso      1.000     H          0.10533599999999999           
         H26       1.0000    0.08750   0.14880   0.61060   Biso      1.000     H          0.145229  
         H27       1.0000    0.52300   0.61210   0.45510   Biso      1.000     H          0.453175  
         H28       1.0000    0.92960   0.18690   0.84910   Biso      1.000     H          0.472207  
         H29       1.0000    0.90130   0.39680   0.53460   Biso      1.000     H          0.117031  
         H30       1.0000    0.73040   0.49270   0.14830   Biso      1.000     H          0.13631500000000002           
         H31       1.0000    0.07560   0.19290   0.43050   Biso      1.000     H          0.126342  
         H32       1.0000    0.92960   0.31310   0.34910   Biso      1.000     H          0.472207  
         H33       1.0000    0.52300   0.88790   0.95510   Biso      1.000     H          0.453175  
         H34       1.0000    0.35750   0.62360   0.04370   Biso      1.000     H          0.314636  
         H35       1.0000    0.47230   0.27040   0.20630   Biso      1.000     H          0.135723  
         H36       1.0000    0.26960   0.99270   0.35170   Biso      1.000     H          0.13631400000000002           
         N1        1.0000    0.76660   0.50010   0.94410   Biso      1.000     N          -0.250918           
         N2        1.0000    0.68940   0.42760   0.97310   Biso      1.000     N          -0.19484400000000002          
         N3        1.0000    0.78100   0.53710   0.04158   Biso      1.000     N          -0.445391           
         N4        1.0000    0.78100   0.96290   0.54158   Biso      1.000     N          -0.445391           
         N5        1.0000    0.68940   0.07240   0.47310   Biso      1.000     N          -0.194847           
         N6        1.0000    0.23340   0.49990   0.05590   Biso      1.000     N          -0.250918           
         N7        1.0000    0.23340   0.00010   0.55590   Biso      1.000     N          -0.250918           
         N8        1.0000    0.31060   0.57240   0.02690   Biso      1.000     N          -0.19484400000000002          
         N9        1.0000    0.21900   0.46290   0.95842   Biso      1.000     N          -0.445391           
         N10       1.0000    0.31060   0.92760   0.52690   Biso      1.000     N          -0.19484400000000002          
         N11       1.0000    0.21900   0.03710   0.45842   Biso      1.000     N          -0.445391           
         N12       1.0000    0.76660   0.99990   0.44410   Biso      1.000     N          -0.250915           
         O1        1.0000    0.02900   0.90770   0.84759   Biso      1.000     O          -0.602226           
         O2        1.0000    0.65030   0.62850   0.34938   Biso      1.000     O          -0.45539700000000005          
         O3        1.0000    0.23240   0.98390   0.23710   Biso      1.000     O          -0.553035           
         O4        1.0000    0.43090   0.89110   0.20860   Biso      1.000     O          -0.591647           
         O5        1.0000    0.61430   0.63120   0.44720   Biso      1.000     O          -0.5163760000000001           
         O6        1.0000    0.00660   0.84860   0.12870   Biso      1.000     O          -0.485091           
         O7        1.0000    0.16350   0.93860   0.07769   Biso      1.000     O          -0.490237           
         O8        1.0000    0.38570   0.13120   0.05280   Biso      1.000     O          -0.516375           
         O9        1.0000    0.76760   0.48390   0.26290   Biso      1.000     O          -0.553035           
         O10       1.0000    0.34970   0.12850   0.15062   Biso      1.000     O          -0.45539700000000005          
         O11       1.0000    0.05990   0.75710   0.81640   Biso      1.000     O          -0.52153  
         O12       1.0000    0.56910   0.39110   0.29140   Biso      1.000     O          -0.591647           
         O13       1.0000    0.34970   0.37150   0.65062   Biso      1.000     O          -0.45539700000000005          
         O14       1.0000    0.97100   0.40770   0.65241   Biso      1.000     O          -0.602226           
         O15       1.0000    0.94010   0.24290   0.18360   Biso      1.000     O          -0.52153  
         O16       1.0000    0.97100   0.09230   0.15241   Biso      1.000     O          -0.602226           
         O17       1.0000    0.99340   0.15140   0.87130   Biso      1.000     O          -0.485091           
         O18       1.0000    0.83650   0.06140   0.92231   Biso      1.000     O          -0.490237           
         O19       1.0000    0.65030   0.87150   0.84938   Biso      1.000     O          -0.45539700000000005          
         O20       1.0000    0.94010   0.25710   0.68360   Biso      1.000     O          -0.52153  
         O21       1.0000    0.83650   0.43860   0.42231   Biso      1.000     O          -0.490237           
         O22       1.0000    0.23240   0.51610   0.73710   Biso      1.000     O          -0.553035           
         O23       1.0000    0.61430   0.86880   0.94720   Biso      1.000     O          -0.5163760000000001           
         O24       1.0000    0.00660   0.65140   0.62870   Biso      1.000     O          -0.485091           
         O25       1.0000    0.99340   0.34860   0.37130   Biso      1.000     O          -0.485092           
         O26       1.0000    0.02900   0.59230   0.34759   Biso      1.000     O          -0.602226           
         O27       1.0000    0.05990   0.74290   0.31640   Biso      1.000     O          -0.52153  
         O28       1.0000    0.76760   0.01610   0.76290   Biso      1.000     O          -0.553035           
         O29       1.0000    0.56910   0.10890   0.79140   Biso      1.000     O          -0.591647           
         O30       1.0000    0.38570   0.36880   0.55280   Biso      1.000     O          -0.5163760000000001           
         O31       1.0000    0.16350   0.56140   0.57769   Biso      1.000     O          -0.490237           
         O32       1.0000    0.43090   0.60890   0.70860   Biso      1.000     O          -0.591647           
         Zn1       1.0000    0.80949   0.52099   0.34982   Biso      1.000     Zn          0.909906  
         Zn2       1.0000    0.19051   0.47901   0.65018   Biso      1.000     Zn          0.909907  
         Zn3       1.0000    0.80949   0.97901   0.84982   Biso      1.000     Zn          0.909907  
         Zn4       1.0000    0.19051   0.02099   0.15018   Biso      1.000     Zn          0.909906 