
##########################################################################
#               Crystallographic Information Format file
#               Produced by PyCifRW module
#
#  This is a CIF file.  CIF has been adopted by the International
#  Union of Crystallography as the standard for data archiving and
#  transmission.
#
#  For information on this file format, follow the CIF links at
#  http://www.iucr.org
##########################################################################

data_image0

_cell_length_a                          12.6356
_cell_length_b                          12.6963
_cell_length_c                          22.1755
_cell_angle_alpha                       84.864
_cell_angle_beta                        88.088
_cell_angle_gamma                       72.98
_symmetry_space_group_name_H-M          'P 1'
_symmetry_int_tables_number             1
loop_
  _symmetry_equiv_pos_as_xyz
         'x, y, z' 
loop_
  _atom_site_label
  _atom_site_occupancy
  _atom_site_fract_x
  _atom_site_fract_y
  _atom_site_fract_z
  _atom_site_thermal_displace_type
  _atom_site_B_iso_or_equiv
  _atom_site_type_symbol
  _atom_site_charge
         Ag1       1.0000    0.20449   0.41297   0.34693   Biso      1.000     Ag          0.182174  
         Ag2       1.0000    0.79551   0.58703   0.65307   Biso      1.000     Ag          0.182174  
         Ag3       1.0000    0.70639   0.39329   0.69934   Biso      1.000     Ag          0.199754  
         Ag4       1.0000    0.61051   0.59281   0.76093   Biso      1.000     Ag          0.141244  
         Ag5       1.0000    0.76478   0.41435   0.84093   Biso      1.000     Ag          0.195499  
         Ag6       1.0000    0.96867   0.42489   0.72691   Biso      1.000     Ag          0.160559  
         Ag7       1.0000    0.83838   0.61420   0.79796   Biso      1.000     Ag          0.18393   
         Ag8       1.0000    0.03133   0.57511   0.27309   Biso      1.000     Ag          0.160559  
         Ag9       1.0000    0.16162   0.38580   0.20204   Biso      1.000     Ag          0.18393   
         Ag10      1.0000    0.23522   0.58565   0.15907   Biso      1.000     Ag          0.195498  
         Ag11      1.0000    0.38949   0.40719   0.23907   Biso      1.000     Ag          0.141244  
         Ag12      1.0000    0.29361   0.60671   0.30066   Biso      1.000     Ag          0.199754  
         C1        1.0000    0.33310   0.53140   0.02883   Biso      1.000     C          0.055827  
         C2        1.0000    0.36710   0.36770   0.08959   Biso      1.000     C          0.223215  
         C3        1.0000    0.38740   0.47930   0.98052   Biso      1.000     C          -0.149022           
         C4        1.0000    0.41000   0.73780   0.54807   Biso      1.000     C          0.607712  
         C5        1.0000    0.43550   0.36620   0.98749   Biso      1.000     C          -0.075133           
         C6        1.0000    0.42730   0.30870   0.04289   Biso      1.000     C          -0.091877           
         C7        1.0000    0.51530   0.39720   0.60555   Biso      1.000     C          0.074103  
         C8        1.0000    0.54920   0.78090   0.16504   Biso      1.000     C          0.624824  
         C9        1.0000    0.67800   0.59150   0.16479   Biso      1.000     C          -0.085709           
         C10       1.0000    0.61800   0.43350   0.18739   Biso      1.000     C          0.060584  
         C11       1.0000    0.42920   0.34300   0.82678   Biso      1.000     C          -0.073449           
         C12       1.0000    0.70230   0.47800   0.17100   Biso      1.000     C          -0.157194           
         C13       1.0000    0.32200   0.40850   0.83521   Biso      1.000     C          -0.085707           
         C14       1.0000    0.49060   0.18760   0.05101   Biso      1.000     C          0.669876  
         C15       1.0000    0.57080   0.65700   0.17322   Biso      1.000     C          -0.073448           
         C16       1.0000    0.48920   0.60560   0.19069   Biso      1.000     C          0.220315  
         C17       1.0000    0.51080   0.39440   0.80931   Biso      1.000     C          0.220316  
         C18       1.0000    0.98060   0.56690   0.12011   Biso      1.000     C          0.261073  
         C19       1.0000    0.83460   0.73140   0.06546   Biso      1.000     C          0.621032  
         C20       1.0000    0.87450   0.53890   0.03869   Biso      1.000     C          -0.044426           
         C21       1.0000    0.92510   0.35710   0.47574   Biso      1.000     C          -0.05696  
         C22       1.0000    0.88210   0.46980   0.46493   Biso      1.000     C          -0.132945           
         C23       1.0000    0.84810   0.53140   0.51339   Biso      1.000     C          0.077298  
         C24       1.0000    0.99170   0.18680   0.54527   Biso      1.000     C          0.655606  
         C25       1.0000    0.94720   0.16330   0.32710   Biso      1.000     C          0.626744  
         C26       1.0000    0.53110   0.57220   0.61466   Biso      1.000     C          0.220962  
         C27       1.0000    0.80890   0.50850   0.30267   Biso      1.000     C          0.047915  
         C28       1.0000    0.44730   0.61750   0.57136   Biso      1.000     C          -0.088107           
         C29       1.0000    0.73940   0.44440   0.31606   Biso      1.000     C          -0.133863           
         C30       1.0000    0.39560   0.54780   0.54839   Biso      1.000     C          -0.064027           
         C31       1.0000    0.78460   0.33150   0.32447   Biso      1.000     C          -0.078955           
         C32       1.0000    0.89760   0.28640   0.31837   Biso      1.000     C          -0.079363           
         C33       1.0000    0.96410   0.35650   0.30469   Biso      1.000     C          0.20629   
         C34       1.0000    0.59000   0.26220   0.45193   Biso      1.000     C          0.607711  
         C35       1.0000    0.99790   0.38900   0.09467   Biso      1.000     C          0.094744  
         C36       1.0000    0.42990   0.43620   0.56564   Biso      1.000     C          -0.150571           
         C37       1.0000    0.92170   0.42680   0.04895   Biso      1.000     C          -0.158877           
         C38       1.0000    0.90030   0.61110   0.07505   Biso      1.000     C          -0.116965           
         C39       1.0000    0.93490   0.30860   0.53456   Biso      1.000     C          -0.08413  
         C40       1.0000    0.89570   0.37690   0.58170   Biso      1.000     C          0.23457   
         C41       1.0000    0.29770   0.52200   0.82900   Biso      1.000     C          -0.157199           
         C42       1.0000    0.66690   0.46860   0.97117   Biso      1.000     C          0.055827  
         C43       1.0000    0.48470   0.60280   0.39445   Biso      1.000     C          0.074102  
         C44       1.0000    0.01940   0.43310   0.87989   Biso      1.000     C          0.261073  
         C45       1.0000    0.09970   0.38890   0.92495   Biso      1.000     C          -0.116965           
         C46       1.0000    0.12550   0.46110   0.96131   Biso      1.000     C          -0.044426           
         C47       1.0000    0.07830   0.57320   0.95105   Biso      1.000     C          -0.158876           
         C48       1.0000    0.61260   0.52070   0.01948   Biso      1.000     C          -0.149022           
         C49       1.0000    0.00210   0.61100   0.90533   Biso      1.000     C          0.094744  
         C50       1.0000    0.03590   0.64350   0.69531   Biso      1.000     C          0.20629   
         C51       1.0000    0.10240   0.71360   0.68163   Biso      1.000     C          -0.079363           
         C52       1.0000    0.21540   0.66850   0.67553   Biso      1.000     C          -0.078953           
         C53       1.0000    0.26060   0.55560   0.68394   Biso      1.000     C          -0.133872           
         C54       1.0000    0.19110   0.49150   0.69733   Biso      1.000     C          0.047924  
         C55       1.0000    0.05280   0.83670   0.67290   Biso      1.000     C          0.626744  
         C56       1.0000    0.16540   0.26860   0.93454   Biso      1.000     C          0.621032  
         C57       1.0000    0.56450   0.63380   0.01251   Biso      1.000     C          -0.075133           
         C58       1.0000    0.50940   0.81240   0.94899   Biso      1.000     C          0.669876  
         C59       1.0000    0.63290   0.63230   0.91041   Biso      1.000     C          0.223215  
         C60       1.0000    0.46890   0.42780   0.38534   Biso      1.000     C          0.220962  
         C61       1.0000    0.00830   0.81320   0.45473   Biso      1.000     C          0.655606  
         C62       1.0000    0.38200   0.56650   0.81261   Biso      1.000     C          0.060589  
         C63       1.0000    0.57270   0.69130   0.95711   Biso      1.000     C          -0.091877           
         C64       1.0000    0.15190   0.46860   0.48661   Biso      1.000     C          0.077293  
         C65       1.0000    0.60440   0.45220   0.45161   Biso      1.000     C          -0.064031           
         C66       1.0000    0.11790   0.53020   0.53507   Biso      1.000     C          -0.13294  
         C67       1.0000    0.07490   0.64290   0.52426   Biso      1.000     C          -0.056961           
         C68       1.0000    0.45080   0.21910   0.83496   Biso      1.000     C          0.624825  
         C69       1.0000    0.06510   0.69140   0.46544   Biso      1.000     C          -0.08413  
         C70       1.0000    0.10430   0.62310   0.41830   Biso      1.000     C          0.23457   
         C71       1.0000    0.57010   0.56380   0.43436   Biso      1.000     C          -0.15057  
         C72       1.0000    0.55270   0.38250   0.42864   Biso      1.000     C          -0.088103           
         H1        1.0000    0.87620   0.50340   0.42570   Biso      1.000     H          0.119431  
         H2        1.0000    0.33660   0.52350   0.68060   Biso      1.000     H          0.121174  
         H3        1.0000    0.22180   0.41530   0.70290   Biso      1.000     H          0.088926  
         H4        1.0000    0.26050   0.71390   0.66580   Biso      1.000     H          0.114809  
         H5        1.0000    0.16700   0.94600   0.93320   Biso      1.000     H          0.523146  
         H6        1.0000    0.94770   0.31340   0.44350   Biso      1.000     H          0.119494  
         H7        1.0000    0.11600   0.03300   0.96300   Biso      1.000     H          0.464847  
         H8        1.0000    0.22640   0.56690   0.83570   Biso      1.000     H          0.113865  
         H9        1.0000    0.97030   0.68680   0.89790   Biso      1.000     H          0.095594  
         H10       1.0000    0.09730   0.62220   0.97430   Biso      1.000     H          0.114733  
         H11       1.0000    0.36620   0.64300   0.80830   Biso      1.000     H          0.083899  
         H12       1.0000    0.17520   0.43340   0.99290   Biso      1.000     H          0.119554  
         H13       1.0000    0.33750   0.57640   0.52130   Biso      1.000     H          0.118453  
         H14       1.0000    0.69710   0.39220   0.97570   Biso      1.000     H          0.081518  
         H15       1.0000    0.39580   0.38850   0.55050   Biso      1.000     H          0.125193  
         H16       1.0000    0.60820   0.48090   0.05630   Biso      1.000     H          0.118103  
         H17       1.0000    0.54060   0.32140   0.61590   Biso      1.000     H          0.10071   
         H18       1.0000    0.52690   0.67110   0.04470   Biso      1.000     H          0.119869  
         H19       1.0000    0.82020   0.60770   0.50620   Biso      1.000     H          0.100373  
         H20       1.0000    0.26610   0.37580   0.84510   Biso      1.000     H          0.106291  
         H21       1.0000    0.62900   0.03900   0.17420   Biso      1.000     H          0.509866  
         H22       1.0000    0.47310   0.32890   0.95530   Biso      1.000     H          0.119869  
         H23       1.0000    0.88400   0.96700   0.03700   Biso      1.000     H          0.464847  
         H24       1.0000    0.83300   0.05400   0.06680   Biso      1.000     H          0.523146  
         H25       1.0000    0.77820   0.58470   0.29710   Biso      1.000     H          0.088926  
         H26       1.0000    0.66340   0.47650   0.31940   Biso      1.000     H          0.121173  
         H27       1.0000    0.73950   0.28610   0.33420   Biso      1.000     H          0.114809  
         H28       1.0000    0.02970   0.31320   0.10210   Biso      1.000     H          0.095594  
         H29       1.0000    0.90270   0.37780   0.02570   Biso      1.000     H          0.114733  
         H30       1.0000    0.82480   0.56660   0.00710   Biso      1.000     H          0.119554  
         H31       1.0000    0.30290   0.60780   0.02430   Biso      1.000     H          0.081518  
         H32       1.0000    0.39180   0.51910   0.94370   Biso      1.000     H          0.118103  
         H33       1.0000    0.63380   0.35700   0.19170   Biso      1.000     H          0.083899  
         H34       1.0000    0.77360   0.43310   0.16430   Biso      1.000     H          0.113864  
         H35       1.0000    0.73390   0.62420   0.15490   Biso      1.000     H          0.106291  
         H36       1.0000    0.45940   0.67860   0.38410   Biso      1.000     H          0.10071   
         H37       1.0000    0.60420   0.61150   0.44950   Biso      1.000     H          0.125193  
         H38       1.0000    0.66250   0.42360   0.47870   Biso      1.000     H          0.118453  
         H39       1.0000    0.17980   0.39230   0.49380   Biso      1.000     H          0.100373  
         H40       1.0000    0.12380   0.49660   0.57430   Biso      1.000     H          0.119431  
         H41       1.0000    0.05230   0.68660   0.55650   Biso      1.000     H          0.119494  
         H42       1.0000    0.62300   0.94700   0.18010   Biso      1.000     H          0.543434  
         H43       1.0000    0.37700   0.05300   0.81990   Biso      1.000     H          0.543434  
         H44       1.0000    0.37100   0.96100   0.82580   Biso      1.000     H          0.509865  
         N1        1.0000    0.02850   0.45696   0.12901   Biso      1.000     N          -0.198522           
         N2        1.0000    0.08080   0.53320   0.70285   Biso      1.000     N          -0.232382           
         N3        1.0000    0.32127   0.47780   0.08244   Biso      1.000     N          -0.231266           
         N4        1.0000    0.51410   0.49440   0.19752   Biso      1.000     N          -0.216344           
         N5        1.0000    0.43550   0.53720   0.36941   Biso      1.000     N          -0.237732           
         N6        1.0000    0.97150   0.54304   0.87099   Biso      1.000     N          -0.198522           
         N7        1.0000    0.67873   0.52220   0.91756   Biso      1.000     N          -0.231266           
         N8        1.0000    0.48590   0.50560   0.80248   Biso      1.000     N          -0.216345           
         N9        1.0000    0.56450   0.46280   0.63059   Biso      1.000     N          -0.237732           
         N10       1.0000    0.85330   0.48673   0.57076   Biso      1.000     N          -0.222199           
         N11       1.0000    0.14670   0.51327   0.42924   Biso      1.000     N          -0.222199           
         N12       1.0000    0.91920   0.46680   0.29715   Biso      1.000     N          -0.232381           
         O1        1.0000    0.65765   0.97630   0.16507   Biso      1.000     O          -1.040049           
         O2        1.0000    0.83570   0.99430   0.06716   Biso      1.000     O          -0.928815           
         O3        1.0000    0.81000   0.77303   0.01285   Biso      1.000     O          -0.600264           
         O4        1.0000    0.95732   0.11942   0.38017   Biso      1.000     O          -0.659556           
         O5        1.0000    0.80050   0.78290   0.11180   Biso      1.000     O          -0.730518           
         O6        1.0000    0.45396   0.11731   0.02975   Biso      1.000     O          -0.697187           
         O7        1.0000    0.58211   0.16297   0.07648   Biso      1.000     O          -0.663723           
         O8        1.0000    0.55850   0.82779   0.21112   Biso      1.000     O          -0.60908  
         O9        1.0000    0.53250   0.82715   0.11255   Biso      1.000     O          -0.677137           
         O10       1.0000    0.69182   0.22035   0.45828   Biso      1.000     O          -0.716221           
         O11       1.0000    0.97117   0.11196   0.28023   Biso      1.000     O          -0.683138           
         O12       1.0000    0.92064   0.84395   0.42449   Biso      1.000     O          -0.673434           
         O13       1.0000    0.48182   0.78604   0.53409   Biso      1.000     O          -0.595998           
         O14       1.0000    0.19950   0.21710   0.88820   Biso      1.000     O          -0.730518           
         O15       1.0000    0.34235   0.02370   0.83493   Biso      1.000     O          -1.040049           
         O16       1.0000    0.16430   0.00570   0.93284   Biso      1.000     O          -0.928815           
         O17       1.0000    0.02883   0.88804   0.71977   Biso      1.000     O          -0.683138           
         O18       1.0000    0.04268   0.88058   0.61983   Biso      1.000     O          -0.659557           
         O19       1.0000    0.07936   0.15605   0.57551   Biso      1.000     O          -0.673434           
         O20       1.0000    0.19000   0.22697   0.98715   Biso      1.000     O          -0.600264           
         O21       1.0000    0.54604   0.88269   0.97025   Biso      1.000     O          -0.697187           
         O22       1.0000    0.04679   0.88001   0.47768   Biso      1.000     O          -0.68576  
         O23       1.0000    0.41789   0.83703   0.92352   Biso      1.000     O          -0.663723           
         O24       1.0000    0.44150   0.17221   0.78888   Biso      1.000     O          -0.60908  
         O25       1.0000    0.46750   0.17285   0.88745   Biso      1.000     O          -0.677137           
         O26       1.0000    0.30818   0.77965   0.54172   Biso      1.000     O          -0.71622  
         O27       1.0000    0.51818   0.21396   0.46591   Biso      1.000     O          -0.595999           
         O28       1.0000    0.95321   0.11999   0.52232   Biso      1.000     O          -0.68576  
         S1        1.0000    0.34921   0.29614   0.15920   Biso      1.000     S          -0.324259           
         S2        1.0000    0.35207   0.68636   0.20290   Biso      1.000     S          -0.328779           
         S3        1.0000    0.41134   0.34225   0.34704   Biso      1.000     S          -0.292511           
         S4        1.0000    0.10443   0.68003   0.34266   Biso      1.000     S          -0.355234           
         S5        1.0000    0.03066   0.65075   0.16437   Biso      1.000     S          -0.549336           
         S6        1.0000    0.10872   0.29924   0.29870   Biso      1.000     S          -0.269259           
         S7        1.0000    0.58866   0.65775   0.65296   Biso      1.000     S          -0.292511           
         S8        1.0000    0.89128   0.70076   0.70130   Biso      1.000     S          -0.269258           
         S9        1.0000    0.64793   0.31364   0.79710   Biso      1.000     S          -0.328779           
         S10       1.0000    0.89557   0.31997   0.65734   Biso      1.000     S          -0.355234           
         S11       1.0000    0.96934   0.34925   0.83563   Biso      1.000     S          -0.549336           
         S12       1.0000    0.65079   0.70386   0.84080   Biso      1.000     S          -0.324259           
         Sr1       1.0000    0.16096   0.95708   0.54272   Biso      1.000     Sr          1.549273  
         Sr2       1.0000    0.13055   0.10780   0.81952   Biso      1.000     Sr          1.583024  
         Sr3       1.0000    0.35487   0.05373   0.95008   Biso      1.000     Sr          1.458844  
         Sr4       1.0000    0.64513   0.94627   0.04992   Biso      1.000     Sr          1.458844  
         Sr5       1.0000    0.86945   0.89220   0.18048   Biso      1.000     Sr          1.583024  
         Sr6       1.0000    0.83904   0.04292   0.45728   Biso      1.000     Sr          1.549273 