
##########################################################################
#               Crystallographic Information Format file
#               Produced by PyCifRW module
#
#  This is a CIF file.  CIF has been adopted by the International
#  Union of Crystallography as the standard for data archiving and
#  transmission.
#
#  For information on this file format, follow the CIF links at
#  http://www.iucr.org
##########################################################################

data_image0

_cell_length_a                          9.0521
_cell_length_b                          15.401
_cell_length_c                          17.141
_cell_angle_alpha                       90
_cell_angle_beta                        90
_cell_angle_gamma                       90
_symmetry_space_group_name_H-M          'P 1'
_symmetry_int_tables_number             1
loop_
  _symmetry_equiv_pos_as_xyz
         'x, y, z' 
loop_
  _atom_site_label
  _atom_site_occupancy
  _atom_site_fract_x
  _atom_site_fract_y
  _atom_site_fract_z
  _atom_site_thermal_displace_type
  _atom_site_B_iso_or_equiv
  _atom_site_type_symbol
  _atom_site_charge
         C1        1.0000    0.83580   0.04780   0.46770   Biso      1.000     C          -0.124068           
         C2        1.0000    0.51340   0.35770   0.25150   Biso      1.000     C          -0.089823           
         C3        1.0000    0.52950   0.45430   0.26140   Biso      1.000     C          -0.200999           
         C4        1.0000    0.62000   0.49790   0.19800   Biso      1.000     C          -0.203952           
         C5        1.0000    0.62850   0.59760   0.20750   Biso      1.000     C          -0.102056           
         C6        1.0000    0.36920   0.65420   0.22180   Biso      1.000     C          0.080134  
         C7        1.0000    0.46900   0.67190   0.10720   Biso      1.000     C          -0.117387           
         C8        1.0000    0.69470   0.28850   0.15800   Biso      1.000     C          -0.121642           
         C9        1.0000    0.32970   0.70390   0.10610   Biso      1.000     C          -0.040088           
         C10       1.0000    0.29670   0.83720   0.44030   Biso      1.000     C          -0.16179  
         C11       1.0000    0.35790   0.86630   0.50970   Biso      1.000     C          -0.030438           
         C12       1.0000    0.33580   0.95220   0.53230   Biso      1.000     C          -0.124068           
         C13       1.0000    0.25560   0.00740   0.48640   Biso      1.000     C          -0.097521           
         C14       1.0000    0.20110   0.97940   0.41480   Biso      1.000     C          -0.108117           
         C15       1.0000    0.15620   0.86140   0.31690   Biso      1.000     C          0.569692  
         C16       1.0000    0.21890   0.89290   0.39280   Biso      1.000     C          -0.026311           
         C17       1.0000    0.44610   0.80560   0.56220   Biso      1.000     C          0.569261  
         C18       1.0000    0.83380   0.25580   0.16560   Biso      1.000     C          -0.051262           
         C19       1.0000    0.94610   0.19440   0.43780   Biso      1.000     C          0.56926   
         C20       1.0000    0.19470   0.71150   0.84200   Biso      1.000     C          -0.121642           
         C21       1.0000    0.01340   0.64230   0.74850   Biso      1.000     C          -0.089823           
         C22       1.0000    0.02950   0.54570   0.73860   Biso      1.000     C          -0.200999           
         C23       1.0000    0.12000   0.50210   0.80200   Biso      1.000     C          -0.203952           
         C24       1.0000    0.12850   0.40240   0.79250   Biso      1.000     C          -0.102056           
         C25       1.0000    0.86920   0.34580   0.77820   Biso      1.000     C          0.080134  
         C26       1.0000    0.76510   0.29710   0.27880   Biso      1.000     C          0.097222  
         C27       1.0000    0.96900   0.32810   0.89280   Biso      1.000     C          -0.117387           
         C28       1.0000    0.71890   0.10710   0.60720   Biso      1.000     C          -0.026316           
         C29       1.0000    0.79670   0.16280   0.55970   Biso      1.000     C          -0.161785           
         C30       1.0000    0.85790   0.13370   0.49030   Biso      1.000     C          -0.030439           
         C31       1.0000    0.75560   0.99260   0.51360   Biso      1.000     C          -0.097521           
         C32       1.0000    0.70110   0.02060   0.58520   Biso      1.000     C          -0.108116           
         C33       1.0000    0.65620   0.13860   0.68310   Biso      1.000     C          0.569692  
         C34       1.0000    0.82970   0.29610   0.89390   Biso      1.000     C          -0.040088           
         C35       1.0000    0.26510   0.20290   0.77880   Biso      1.000     C          0.097223  
         C36       1.0000    0.33380   0.24420   0.66560   Biso      1.000     C          -0.051271           
         C37       1.0000    0.19470   0.21150   0.65800   Biso      1.000     C          -0.121632           
         C38       1.0000    0.52950   0.95430   0.23860   Biso      1.000     C          -0.200999           
         C39       1.0000    0.62000   0.99790   0.30200   Biso      1.000     C          -0.203952           
         C40       1.0000    0.62850   0.09760   0.29250   Biso      1.000     C          -0.102056           
         C41       1.0000    0.36920   0.15420   0.27820   Biso      1.000     C          0.080134  
         C42       1.0000    0.46900   0.17190   0.39280   Biso      1.000     C          -0.117387           
         C43       1.0000    0.32970   0.20390   0.39390   Biso      1.000     C          -0.040088           
         C44       1.0000    0.51340   0.85770   0.24850   Biso      1.000     C          -0.089823           
         C45       1.0000    0.21890   0.39290   0.10720   Biso      1.000     C          -0.026316           
         C46       1.0000    0.35790   0.36630   0.99030   Biso      1.000     C          -0.030439           
         C47       1.0000    0.33580   0.45220   0.96770   Biso      1.000     C          -0.124068           
         C48       1.0000    0.25560   0.50740   0.01360   Biso      1.000     C          -0.097521           
         C49       1.0000    0.20110   0.47940   0.08520   Biso      1.000     C          -0.108117           
         C50       1.0000    0.15620   0.36140   0.18310   Biso      1.000     C          0.569692  
         C51       1.0000    0.44610   0.30560   0.93780   Biso      1.000     C          0.56926   
         C52       1.0000    0.29670   0.33720   0.05970   Biso      1.000     C          -0.161785           
         C53       1.0000    0.69470   0.78850   0.34200   Biso      1.000     C          -0.121641           
         C54       1.0000    0.83380   0.75580   0.33440   Biso      1.000     C          -0.051262           
         C55       1.0000    0.76510   0.79710   0.22120   Biso      1.000     C          0.097222  
         C56       1.0000    0.01340   0.14230   0.75150   Biso      1.000     C          -0.089823           
         C57       1.0000    0.02950   0.04570   0.76140   Biso      1.000     C          -0.200999           
         C58       1.0000    0.12000   0.00210   0.69800   Biso      1.000     C          -0.203952           
         C59       1.0000    0.12850   0.90240   0.70750   Biso      1.000     C          -0.102056           
         C60       1.0000    0.86920   0.84580   0.72180   Biso      1.000     C          0.080134  
         C61       1.0000    0.96900   0.82810   0.60720   Biso      1.000     C          -0.117387           
         C62       1.0000    0.82970   0.79610   0.60610   Biso      1.000     C          -0.040088           
         C63       1.0000    0.71890   0.60710   0.89280   Biso      1.000     C          -0.026316           
         C64       1.0000    0.79670   0.66280   0.94030   Biso      1.000     C          -0.161785           
         C65       1.0000    0.85790   0.63370   0.00970   Biso      1.000     C          -0.030439           
         C66       1.0000    0.83580   0.54780   0.03230   Biso      1.000     C          -0.124068           
         C67       1.0000    0.75560   0.49260   0.98640   Biso      1.000     C          -0.097521           
         C68       1.0000    0.70110   0.52060   0.91480   Biso      1.000     C          -0.108116           
         C69       1.0000    0.65620   0.63860   0.81690   Biso      1.000     C          0.569692  
         C70       1.0000    0.94610   0.69440   0.06220   Biso      1.000     C          0.569261  
         C71       1.0000    0.33380   0.74420   0.83440   Biso      1.000     C          -0.051262           
         C72       1.0000    0.26510   0.70290   0.72120   Biso      1.000     C          0.097223  
         Cu1       1.0000    0.57064   0.27827   0.78185   Biso      1.000     Cu          0.789251  
         Cu2       1.0000    0.07064   0.72173   0.21815   Biso      1.000     Cu          0.789251  
         Cu3       1.0000    0.57064   0.77827   0.71815   Biso      1.000     Cu          0.78925   
         Cu4       1.0000    0.07064   0.22173   0.28185   Biso      1.000     Cu          0.789252  
         H1        1.0000    0.37590   0.47210   0.92110   Biso      1.000     H          0.116522  
         H2        1.0000    0.30830   0.27950   0.07430   Biso      1.000     H          0.121518  
         H3        1.0000    0.89110   0.23300   0.12550   Biso      1.000     H          0.128002  
         H4        1.0000    0.63960   0.29250   0.11230   Biso      1.000     H          0.138786  
         H5        1.0000    0.47600   0.33300   0.29970   Biso      1.000     H          0.10644   
         H6        1.0000    0.44120   0.34620   0.21100   Biso      1.000     H          0.111988  
         H7        1.0000    0.57550   0.46580   0.31140   Biso      1.000     H          0.10702   
         H8        1.0000    0.43180   0.48020   0.26220   Biso      1.000     H          0.117166  
         H9        1.0000    0.71930   0.47430   0.19870   Biso      1.000     H          0.11867   
         H10       1.0000    0.65310   0.98190   0.61810   Biso      1.000     H          0.114546  
         H11       1.0000    0.64390   0.61160   0.26210   Biso      1.000     H          0.110288  
         H12       1.0000    0.71230   0.61950   0.17830   Biso      1.000     H          0.1148    
         H13       1.0000    0.35690   0.63890   0.27390   Biso      1.000     H          0.117858  
         H14       1.0000    0.53550   0.67170   0.06590   Biso      1.000     H          0.135954  
         H15       1.0000    0.28340   0.72950   0.06350   Biso      1.000     H          0.129357  
         H16       1.0000    0.57670   0.48460   0.14760   Biso      1.000     H          0.11122   
         H17       1.0000    0.73750   0.93610   0.49700   Biso      1.000     H          0.101115  
         H18       1.0000    0.80830   0.22050   0.57430   Biso      1.000     H          0.121518  
         H19       1.0000    0.30830   0.77950   0.42570   Biso      1.000     H          0.121518  
         H20       1.0000    0.26510   0.69140   0.66790   Biso      1.000     H          0.112365  
         H21       1.0000    0.39110   0.76700   0.87450   Biso      1.000     H          0.128002  
         H22       1.0000    0.13960   0.70750   0.88770   Biso      1.000     H          0.138786  
         H23       1.0000    0.97600   0.66700   0.70030   Biso      1.000     H          0.10644   
         H24       1.0000    0.94120   0.65380   0.78900   Biso      1.000     H          0.111988  
         H25       1.0000    0.07550   0.53420   0.68860   Biso      1.000     H          0.10702   
         H26       1.0000    0.87590   0.02790   0.42110   Biso      1.000     H          0.116522  
         H27       1.0000    0.93180   0.51980   0.73780   Biso      1.000     H          0.117166  
         H28       1.0000    0.21930   0.52570   0.80130   Biso      1.000     H          0.11867   
         H29       1.0000    0.14390   0.38840   0.73790   Biso      1.000     H          0.110287  
         H30       1.0000    0.21230   0.38050   0.82170   Biso      1.000     H          0.1148    
         H31       1.0000    0.85690   0.36110   0.72610   Biso      1.000     H          0.117858  
         H32       1.0000    0.03550   0.32830   0.93410   Biso      1.000     H          0.135954  
         H33       1.0000    0.78340   0.27050   0.93650   Biso      1.000     H          0.129357  
         H34       1.0000    0.07670   0.51540   0.85240   Biso      1.000     H          0.11122   
         H35       1.0000    0.37590   0.97210   0.57890   Biso      1.000     H          0.116522  
         H36       1.0000    0.76510   0.30860   0.33210   Biso      1.000     H          0.112365  
         H37       1.0000    0.15310   0.01810   0.38190   Biso      1.000     H          0.114545  
         H38       1.0000    0.89110   0.73300   0.37450   Biso      1.000     H          0.128003  
         H39       1.0000    0.63960   0.79250   0.38770   Biso      1.000     H          0.138786  
         H40       1.0000    0.47600   0.83300   0.20030   Biso      1.000     H          0.10644   
         H41       1.0000    0.44120   0.84620   0.28900   Biso      1.000     H          0.111988  
         H42       1.0000    0.57550   0.96580   0.18860   Biso      1.000     H          0.10702   
         H43       1.0000    0.43180   0.98020   0.23780   Biso      1.000     H          0.117166  
         H44       1.0000    0.57670   0.98460   0.35240   Biso      1.000     H          0.11122   
         H45       1.0000    0.71930   0.97430   0.30130   Biso      1.000     H          0.11867   
         H46       1.0000    0.64390   0.11160   0.23790   Biso      1.000     H          0.110288  
         H47       1.0000    0.71230   0.11950   0.32170   Biso      1.000     H          0.1148    
         H48       1.0000    0.35690   0.13890   0.22610   Biso      1.000     H          0.117858  
         H49       1.0000    0.53550   0.17170   0.43410   Biso      1.000     H          0.135954  
         H50       1.0000    0.23750   0.06390   0.50300   Biso      1.000     H          0.101115  
         H51       1.0000    0.15310   0.51810   0.11810   Biso      1.000     H          0.114546  
         H52       1.0000    0.23750   0.56390   0.99700   Biso      1.000     H          0.101115  
         H53       1.0000    0.76510   0.80860   0.16790   Biso      1.000     H          0.112365  
         H54       1.0000    0.65310   0.48190   0.88190   Biso      1.000     H          0.114546  
         H55       1.0000    0.28340   0.22950   0.43650   Biso      1.000     H          0.129357  
         H56       1.0000    0.87590   0.52790   0.07890   Biso      1.000     H          0.116522  
         H57       1.0000    0.26510   0.19140   0.83210   Biso      1.000     H          0.112365  
         H58       1.0000    0.39110   0.26700   0.62550   Biso      1.000     H          0.128003  
         H59       1.0000    0.13960   0.20750   0.61230   Biso      1.000     H          0.138786  
         H60       1.0000    0.97600   0.16700   0.79970   Biso      1.000     H          0.10644   
         H61       1.0000    0.07550   0.03420   0.81140   Biso      1.000     H          0.10702   
         H62       1.0000    0.93180   0.01980   0.76220   Biso      1.000     H          0.117166  
         H63       1.0000    0.07670   0.01540   0.64760   Biso      1.000     H          0.11122   
         H64       1.0000    0.94120   0.15380   0.71100   Biso      1.000     H          0.111988  
         H65       1.0000    0.14390   0.88840   0.76210   Biso      1.000     H          0.110288  
         H66       1.0000    0.21230   0.88050   0.67830   Biso      1.000     H          0.1148    
         H67       1.0000    0.85690   0.86110   0.77390   Biso      1.000     H          0.117858  
         H68       1.0000    0.03550   0.82830   0.56590   Biso      1.000     H          0.135954  
         H69       1.0000    0.78340   0.77050   0.56350   Biso      1.000     H          0.129357  
         H70       1.0000    0.80830   0.72050   0.92570   Biso      1.000     H          0.121518  
         H71       1.0000    0.21930   0.02570   0.69870   Biso      1.000     H          0.11867   
         H72       1.0000    0.73750   0.43610   0.00300   Biso      1.000     H          0.101115  
         N1        1.0000    0.37470   0.23790   0.74140   Biso      1.000     N          -0.267909           
         N2        1.0000    0.26810   0.19220   0.32100   Biso      1.000     N          -0.268978           
         N3        1.0000    0.49330   0.14030   0.31990   Biso      1.000     N          0.065815  
         N4        1.0000    0.65240   0.81440   0.26890   Biso      1.000     N          0.0591    
         N5        1.0000    0.87470   0.76210   0.25860   Biso      1.000     N          -0.26791  
         N6        1.0000    0.76810   0.80780   0.67900   Biso      1.000     N          -0.268978           
         N7        1.0000    0.99330   0.85970   0.68010   Biso      1.000     N          0.065816  
         N8        1.0000    0.15240   0.18560   0.73110   Biso      1.000     N          0.059099  
         N9        1.0000    0.26810   0.69220   0.17900   Biso      1.000     N          -0.268978           
         N10       1.0000    0.65240   0.31440   0.23110   Biso      1.000     N          0.0591    
         N11       1.0000    0.87470   0.26210   0.24140   Biso      1.000     N          -0.26791  
         N12       1.0000    0.76810   0.30780   0.82100   Biso      1.000     N          -0.268978           
         N13       1.0000    0.99330   0.35970   0.81990   Biso      1.000     N          0.065815  
         N14       1.0000    0.15240   0.68560   0.76890   Biso      1.000     N          0.0591    
         N15       1.0000    0.37470   0.73790   0.75860   Biso      1.000     N          -0.26791  
         N16       1.0000    0.49330   0.64030   0.18010   Biso      1.000     N          0.065815  
         O1        1.0000    0.10810   0.41490   0.23070   Biso      1.000     O          -0.581093           
         O2        1.0000    0.16100   0.28000   0.19350   Biso      1.000     O          -0.576518           
         O3        1.0000    0.98630   0.76560   0.03600   Biso      1.000     O          -0.597817           
         O4        1.0000    0.97440   0.66590   0.12890   Biso      1.000     O          -0.57632  
         O5        1.0000    0.60810   0.58510   0.76930   Biso      1.000     O          -0.581093           
         O6        1.0000    0.66100   0.72000   0.80650   Biso      1.000     O          -0.576518           
         O7        1.0000    0.48630   0.73440   0.53600   Biso      1.000     O          -0.597818           
         O8        1.0000    0.16100   0.78000   0.30650   Biso      1.000     O          -0.576519           
         O9        1.0000    0.10810   0.91490   0.26930   Biso      1.000     O          -0.581093           
         O10       1.0000    0.98630   0.26560   0.46400   Biso      1.000     O          -0.597817           
         O11       1.0000    0.97440   0.16590   0.37110   Biso      1.000     O          -0.576319           
         O12       1.0000    0.60810   0.08510   0.73070   Biso      1.000     O          -0.581093           
         O13       1.0000    0.66100   0.22000   0.69350   Biso      1.000     O          -0.576519           
         O14       1.0000    0.47440   0.33410   0.87110   Biso      1.000     O          -0.57632  
         O15       1.0000    0.47440   0.83410   0.62890   Biso      1.000     O          -0.57632  
         O16       1.0000    0.48630   0.23440   0.96400   Biso      1.000     O          -0.597817 