
##########################################################################
#               Crystallographic Information Format file
#               Produced by PyCifRW module
#
#  This is a CIF file.  CIF has been adopted by the International
#  Union of Crystallography as the standard for data archiving and
#  transmission.
#
#  For information on this file format, follow the CIF links at
#  http://www.iucr.org
##########################################################################

data_image0

_cell_length_a                          8.01
_cell_length_b                          12.178
_cell_length_c                          14.622
_cell_angle_alpha                       90
_cell_angle_beta                        90
_cell_angle_gamma                       90
_symmetry_space_group_name_H-M          'P 1'
_symmetry_int_tables_number             1
loop_
  _symmetry_equiv_pos_as_xyz
         'x, y, z' 
loop_
  _atom_site_label
  _atom_site_occupancy
  _atom_site_fract_x
  _atom_site_fract_y
  _atom_site_fract_z
  _atom_site_thermal_displace_type
  _atom_site_B_iso_or_equiv
  _atom_site_type_symbol
  _atom_site_charge
         Ag1       1.0000    0.93563   0.56852   0.68119   Biso      1.000     Ag          0.320463  
         Ag2       1.0000    0.06437   0.43148   0.18119   Biso      1.000     Ag          0.320461  
         Ag3       1.0000    0.56437   0.06852   0.68119   Biso      1.000     Ag          0.32046199999999997           
         Ag4       1.0000    0.43563   0.93148   0.18119   Biso      1.000     Ag          0.320459  
         C1        1.0000    0.45390   0.32820   0.68670   Biso      1.000     C          0.001008  
         C2        1.0000    0.34760   0.41850   0.68750   Biso      1.000     C          0.04482   
         C3        1.0000    0.04560   0.61350   0.90160   Biso      1.000     C          -0.000672           
         C4        1.0000    0.06030   0.58760   0.99000   Biso      1.000     C          -0.008294           
         C5        1.0000    0.06850   0.40590   0.95430   Biso      1.000     C          0.025883999999999997          
         C6        1.0000    0.04780   0.43360   0.86520   Biso      1.000     C          -0.005926           
         C7        1.0000    0.85280   0.68210   0.11610   Biso      1.000     C          -0.014126           
         C8        1.0000    0.74590   0.77240   0.11350   Biso      1.000     C          0.015338999999999998          
         C9        1.0000    0.54610   0.67180   0.18670   Biso      1.000     C          0.001016  
         C10       1.0000    0.54560   0.88650   0.40160   Biso      1.000     C          -0.0006730000000000001        
         C11       1.0000    0.56030   0.91240   0.49000   Biso      1.000     C          -0.008292           
         C12       1.0000    0.56850   0.09410   0.45430   Biso      1.000     C          0.025885000000000002          
         C13       1.0000    0.35280   0.81790   0.61610   Biso      1.000     C          -0.014129           
         C14       1.0000    0.25410   0.22760   0.61350   Biso      1.000     C          0.015343  
         C15       1.0000    0.24590   0.72760   0.61350   Biso      1.000     C          0.015341  
         C16       1.0000    0.04610   0.82820   0.68670   Biso      1.000     C          0.0010119999999999999         
         C17       1.0000    0.15240   0.91850   0.68750   Biso      1.000     C          0.04482   
         C18       1.0000    0.45440   0.11350   0.90160   Biso      1.000     C          -0.000674           
         C19       1.0000    0.43970   0.08760   0.99000   Biso      1.000     C          -0.00829  
         C20       1.0000    0.43150   0.90590   0.95430   Biso      1.000     C          0.025886000000000003          
         C21       1.0000    0.45220   0.93360   0.86520   Biso      1.000     C          -0.005921           
         C22       1.0000    0.64720   0.18210   0.11610   Biso      1.000     C          -0.014131           
         C23       1.0000    0.75410   0.27240   0.11350   Biso      1.000     C          0.015343  
         C24       1.0000    0.95390   0.17180   0.18670   Biso      1.000     C          0.001009  
         C25       1.0000    0.84760   0.08150   0.18750   Biso      1.000     C          0.04482   
         C26       1.0000    0.54780   0.06640   0.36520   Biso      1.000     C          -0.0059229999999999994        
         C27       1.0000    0.14720   0.31790   0.61610   Biso      1.000     C          -0.014131999999999999         
         C28       1.0000    0.65240   0.58150   0.18750   Biso      1.000     C          0.044821  
         C29       1.0000    0.93150   0.59410   0.45430   Biso      1.000     C          0.025885000000000002          
         C30       1.0000    0.93970   0.41240   0.49000   Biso      1.000     C          -0.008316           
         C31       1.0000    0.95440   0.38650   0.40160   Biso      1.000     C          -0.0006450000000000001        
         C32       1.0000    0.95220   0.56640   0.36520   Biso      1.000     C          -0.00592  
         H1        1.0000    0.92220   0.66790   0.46970   Biso      1.000     H          0.10158500000000001           
         H2        1.0000    0.96000   0.62280   0.32250   Biso      1.000     H          0.094096  
         H3        1.0000    0.21940   0.16300   0.58530   Biso      1.000     H          0.11233699999999999           
         H4        1.0000    0.56030   0.33490   0.71160   Biso      1.000     H          0.10723900000000001           
         H5        1.0000    0.38430   0.48370   0.71380   Biso      1.000     H          0.102216  
         H6        1.0000    0.04020   0.68710   0.88490   Biso      1.000     H          0.106591  
         H7        1.0000    0.07780   0.33210   0.96970   Biso      1.000     H          0.101588  
         H8        1.0000    0.04000   0.37720   0.82250   Biso      1.000     H          0.094099  
         H9        1.0000    0.78060   0.83700   0.08530   Biso      1.000     H          0.11233599999999999           
         H10       1.0000    0.43970   0.66510   0.21160   Biso      1.000     H          0.10723599999999998           
         H11       1.0000    0.61570   0.51630   0.21380   Biso      1.000     H          0.102212  
         H12       1.0000    0.95980   0.31290   0.38490   Biso      1.000     H          0.10658800000000002           
         H13       1.0000    0.57780   0.16790   0.46970   Biso      1.000     H          0.101586  
         H14       1.0000    0.54020   0.81290   0.38490   Biso      1.000     H          0.106589  
         H15       1.0000    0.88430   0.01630   0.21380   Biso      1.000     H          0.102214  
         H16       1.0000    0.71940   0.33700   0.08530   Biso      1.000     H          0.11233599999999999           
         H17       1.0000    0.46000   0.87720   0.82250   Biso      1.000     H          0.094097  
         H18       1.0000    0.42220   0.83210   0.96970   Biso      1.000     H          0.101586  
         H19       1.0000    0.06030   0.16510   0.21160   Biso      1.000     H          0.10723800000000001           
         H20       1.0000    0.11570   0.98370   0.71380   Biso      1.000     H          0.102214  
         H21       1.0000    0.93970   0.83490   0.71160   Biso      1.000     H          0.10723699999999999           
         H22       1.0000    0.28060   0.66300   0.58530   Biso      1.000     H          0.11233599999999999           
         H23       1.0000    0.54000   0.12280   0.32250   Biso      1.000     H          0.094097  
         H24       1.0000    0.45980   0.18710   0.88490   Biso      1.000     H          0.106591  
         N1        1.0000    0.69440   0.08550   0.15140   Biso      1.000     N          -0.251735           
         N2        1.0000    0.80560   0.58550   0.15140   Biso      1.000     N          -0.251723           
         N3        1.0000    0.90730   0.26730   0.15150   Biso      1.000     N          -0.172447           
         N4        1.0000    0.42390   0.98250   0.02180   Biso      1.000     N          -0.23839899999999997          
         N5        1.0000    0.46180   0.03560   0.83530   Biso      1.000     N          -0.206481           
         N6        1.0000    0.30560   0.91450   0.65140   Biso      1.000     N          -0.251731           
         N7        1.0000    0.09270   0.73270   0.65150   Biso      1.000     N          -0.17244500000000001          
         N8        1.0000    0.57610   0.01750   0.52180   Biso      1.000     N          -0.238404           
         N9        1.0000    0.53820   0.96440   0.33530   Biso      1.000     N          -0.206484           
         N10       1.0000    0.59270   0.76730   0.15150   Biso      1.000     N          -0.17244  
         N11       1.0000    0.19440   0.41450   0.65140   Biso      1.000     N          -0.251736           
         N12       1.0000    0.03820   0.53560   0.83530   Biso      1.000     N          -0.20648899999999998          
         N13       1.0000    0.40730   0.23270   0.65150   Biso      1.000     N          -0.172448           
         N14       1.0000    0.92390   0.51750   0.52180   Biso      1.000     N          -0.238396           
         N15       1.0000    0.96180   0.46440   0.33530   Biso      1.000     N          -0.206484           
         N16       1.0000    0.07610   0.48250   0.02180   Biso      1.000     N          -0.238411           
         O1        1.0000    0.58310   0.70570   0.53470   Biso      1.000     O          -0.52708  
         O2        1.0000    0.66220   0.84430   0.65000   Biso      1.000     O          -0.5183810000000001           
         O3        1.0000    0.08310   0.79430   0.03470   Biso      1.000     O          -0.527081           
         O4        1.0000    0.16220   0.65570   0.15000   Biso      1.000     O          -0.5183810000000001           
         O5        1.0000    0.91690   0.20570   0.53470   Biso      1.000     O          -0.52708  
         O6        1.0000    0.33780   0.15570   0.15000   Biso      1.000     O          -0.5183800000000001           
         O7        1.0000    0.83780   0.34430   0.65000   Biso      1.000     O          -0.5183800000000001           
         O8        1.0000    0.41690   0.29430   0.03470   Biso      1.000     O          -0.52708  
         S1        1.0000    0.94190   0.31040   0.57652   Biso      1.000     S          0.91196   
         S2        1.0000    0.05810   0.68960   0.07652   Biso      1.000     S          0.91196   
         S3        1.0000    0.55810   0.81040   0.57652   Biso      1.000     S          0.911958  
         S4        1.0000    0.44190   0.18960   0.07652   Biso      1.000     S          0.911958 