
##########################################################################
#               Crystallographic Information Format file
#               Produced by PyCifRW module
#
#  This is a CIF file.  CIF has been adopted by the International
#  Union of Crystallography as the standard for data archiving and
#  transmission.
#
#  For information on this file format, follow the CIF links at
#  http://www.iucr.org
##########################################################################

data_image0

_cell_length_a                          7.6285
_cell_length_b                          11.9296
_cell_length_c                          14.342
_cell_angle_alpha                       114.576
_cell_angle_beta                        99.3128
_cell_angle_gamma                       90
_symmetry_space_group_name_H-M          'P 1'
_symmetry_int_tables_number             1
loop_
  _symmetry_equiv_pos_as_xyz
         'x, y, z' 
loop_
  _atom_site_label
  _atom_site_occupancy
  _atom_site_fract_x
  _atom_site_fract_y
  _atom_site_fract_z
  _atom_site_thermal_displace_type
  _atom_site_B_iso_or_equiv
  _atom_site_type_symbol
  _atom_site_charge
         Ba1       1.0000    0.93930   0.72587   0.88532   Biso      1.000     Ba          1.540864  
         Ba2       1.0000    0.56070   0.84055   0.11468   Biso      1.000     Ba          1.540429  
         Ba3       1.0000    0.06070   0.27413   0.11468   Biso      1.000     Ba          1.540864  
         Ba4       1.0000    0.43930   0.15945   0.88532   Biso      1.000     Ba          1.540429  
         C1        1.0000    0.71500   0.52496   0.38944   Biso      1.000     C          -0.044777           
         C2        1.0000    0.02040   0.00300   0.84308   Biso      1.000     C          0.679669  
         C3        1.0000    0.04510   0.93244   0.73074   Biso      1.000     C          -0.191274           
         C4        1.0000    0.23550   0.81827   0.27674   Biso      1.000     C          0.603441  
         C5        1.0000    0.28330   0.98194   0.46188   Biso      1.000     C          -0.092896           
         C6        1.0000    0.26380   0.02486   0.56512   Biso      1.000     C          -0.221113           
         C7        1.0000    0.12600   0.79119   0.42276   Biso      1.000     C          -0.070382           
         C8        1.0000    0.62600   0.63157   0.42276   Biso      1.000     C          -0.069787           
         C9        1.0000    0.21500   0.86448   0.38944   Biso      1.000     C          -0.043229000000000004         
         C10       1.0000    0.47960   0.15992   0.15692   Biso      1.000     C          0.679108  
         C11       1.0000    0.45490   0.20170   0.26926   Biso      1.000     C          -0.192224           
         C12       1.0000    0.26450   0.54153   0.72326   Biso      1.000     C          0.604312  
         C13       1.0000    0.10580   0.83239   0.52594   Biso      1.000     C          -0.240356           
         C14       1.0000    0.60580   0.69355   0.52594   Biso      1.000     C          -0.24097399999999997          
         C15       1.0000    0.76380   0.54026   0.56512   Biso      1.000     C          -0.221631           
         C16       1.0000    0.21670   0.52006   0.53812   Biso      1.000     C          -0.093747           
         C17       1.0000    0.78330   0.47994   0.46188   Biso      1.000     C          -0.09374299999999999          
         C18       1.0000    0.73550   0.45847   0.27674   Biso      1.000     C          0.604313  
         C19       1.0000    0.54510   0.79830   0.73074   Biso      1.000     C          -0.192223           
         C20       1.0000    0.52040   0.84008   0.84308   Biso      1.000     C          0.679108  
         C21       1.0000    0.78500   0.13552   0.61056   Biso      1.000     C          -0.043235           
         C22       1.0000    0.87400   0.20881   0.57724   Biso      1.000     C          -0.070378           
         C23       1.0000    0.89420   0.16761   0.47406   Biso      1.000     C          -0.240356           
         C24       1.0000    0.82400   0.05009   0.40284   Biso      1.000     C          0.26450799999999997           
         C25       1.0000    0.73620   0.97514   0.43488   Biso      1.000     C          -0.221115           
         C26       1.0000    0.71670   0.01806   0.53812   Biso      1.000     C          -0.09289  
         C27       1.0000    0.76450   0.18173   0.72326   Biso      1.000     C          0.603442  
         C28       1.0000    0.95490   0.06756   0.26926   Biso      1.000     C          -0.191273           
         C29       1.0000    0.97960   0.99700   0.15692   Biso      1.000     C          0.679669  
         C30       1.0000    0.67600   0.64725   0.59716   Biso      1.000     C          0.266023  
         C31       1.0000    0.23620   0.45974   0.43488   Biso      1.000     C          -0.221627           
         C32       1.0000    0.17600   0.94991   0.59716   Biso      1.000     C          0.264509  
         C33       1.0000    0.39420   0.30645   0.47406   Biso      1.000     C          -0.24097399999999997          
         C34       1.0000    0.28500   0.47504   0.61056   Biso      1.000     C          -0.044775999999999996         
         C35       1.0000    0.32400   0.35275   0.40284   Biso      1.000     C          0.266023  
         C36       1.0000    0.37400   0.36843   0.57724   Biso      1.000     C          -0.069786           
         H1        1.0000    0.23000   0.94300   0.05000   Biso      1.000     H          0.43878599999999995           
         H2        1.0000    0.42140   0.33760   0.62500   Biso      1.000     H          0.115668  
         H3        1.0000    0.45420   0.23460   0.45280   Biso      1.000     H          0.12554200000000001           
         H4        1.0000    0.19020   0.49120   0.38740   Biso      1.000     H          0.12778499999999998           
         H5        1.0000    0.15680   0.59210   0.55940   Biso      1.000     H          0.104377  
         H6        1.0000    0.93030   0.91590   0.68520   Biso      1.000     H          0.13048900000000002           
         H7        1.0000    0.40830   0.13180   0.27820   Biso      1.000     H          0.11600899999999999           
         H8        1.0000    0.27000   0.89300   0.95000   Biso      1.000     H          0.43797600000000003           
         H9        1.0000    0.07860   0.71260   0.37500   Biso      1.000     H          0.11572400000000001           
         H10       1.0000    0.04580   0.78180   0.54720   Biso      1.000     H          0.125223  
         H11       1.0000    0.30980   0.10380   0.61260   Biso      1.000     H          0.127609  
         H12       1.0000    0.34320   0.03270   0.44060   Biso      1.000     H          0.103199  
         H13       1.0000    0.09170   0.85360   0.72180   Biso      1.000     H          0.116085  
         H14       1.0000    0.56970   0.23070   0.31480   Biso      1.000     H          0.131746  
         H15       1.0000    0.57860   0.66240   0.37500   Biso      1.000     H          0.115668  
         H16       1.0000    0.77000   0.05700   0.95000   Biso      1.000     H          0.43878599999999995           
         H17       1.0000    0.90830   0.14640   0.27820   Biso      1.000     H          0.116085  
         H18       1.0000    0.06970   0.08410   0.31480   Biso      1.000     H          0.13048900000000002           
         H19       1.0000    0.69020   0.89620   0.38740   Biso      1.000     H          0.127609  
         H20       1.0000    0.95420   0.21820   0.45280   Biso      1.000     H          0.125223  
         H21       1.0000    0.92140   0.28740   0.62500   Biso      1.000     H          0.11572400000000001           
         H22       1.0000    0.65680   0.96730   0.55940   Biso      1.000     H          0.103198  
         H23       1.0000    0.59170   0.86820   0.72180   Biso      1.000     H          0.11600899999999999           
         H24       1.0000    0.43030   0.76930   0.68520   Biso      1.000     H          0.131746  
         H25       1.0000    0.84320   0.40790   0.44060   Biso      1.000     H          0.104377  
         H26       1.0000    0.80980   0.50880   0.61260   Biso      1.000     H          0.12778599999999998           
         H27       1.0000    0.54580   0.76540   0.54720   Biso      1.000     H          0.12554200000000001           
         H28       1.0000    0.73000   0.10700   0.05000   Biso      1.000     H          0.43797600000000003           
         O1        1.0000    0.90203   0.89278   0.10062   Biso      1.000     O          -0.6704899999999999           
         O2        1.0000    0.64130   0.49412   0.21372   Biso      1.000     O          -0.666435           
         O3        1.0000    0.08347   0.05522   0.13016   Biso      1.000     O          -0.651353           
         O4        1.0000    0.83680   0.00073   0.29846   Biso      1.000     O          -0.242335           
         O5        1.0000    0.85870   0.28040   0.78628   Biso      1.000     O          -0.666246           
         O6        1.0000    0.66220   0.12230   0.74822   Biso      1.000     O          -0.701164           
         O7        1.0000    0.59797   0.79216   0.89938   Biso      1.000     O          -0.670167           
         O8        1.0000    0.41653   0.92506   0.86984   Biso      1.000     O          -0.6507539999999999           
         O9        1.0000    0.66320   0.70227   0.70154   Biso      1.000     O          -0.24349899999999997          
         O10       1.0000    0.83780   0.37408   0.25178   Biso      1.000     O          -0.7014520000000001           
         O11       1.0000    0.58347   0.07494   0.13016   Biso      1.000     O          -0.6507539999999999           
         O12       1.0000    0.91653   0.94478   0.86984   Biso      1.000     O          -0.651353           
         O13       1.0000    0.16320   0.99927   0.70154   Biso      1.000     O          -0.242335           
         O14       1.0000    0.14130   0.71960   0.21372   Biso      1.000     O          -0.666246           
         O15       1.0000    0.33780   0.87770   0.25178   Biso      1.000     O          -0.701164           
         O16       1.0000    0.40203   0.20784   0.10062   Biso      1.000     O          -0.670167           
         O17       1.0000    0.33680   0.29773   0.29846   Biso      1.000     O          -0.24349899999999997          
         O18       1.0000    0.35870   0.50588   0.78628   Biso      1.000     O          -0.666435           
         O19       1.0000    0.16220   0.62592   0.74822   Biso      1.000     O          -0.7014520000000001           
         O20       1.0000    0.25000   0.87450   0.00000   Biso      1.000     O          -0.9082959999999999           
         O21       1.0000    0.09797   0.10722   0.89938   Biso      1.000     O          -0.6704899999999999           
         O22       1.0000    0.75000   0.12550   0.00000   Biso      1.000     O          -0.9082959999999999 