
##########################################################################
#               Crystallographic Information Format file
#               Produced by PyCifRW module
#
#  This is a CIF file.  CIF has been adopted by the International
#  Union of Crystallography as the standard for data archiving and
#  transmission.
#
#  For information on this file format, follow the CIF links at
#  http://www.iucr.org
##########################################################################

data_image0

_cell_length_a                          12.8164
_cell_length_b                          22.2866
_cell_length_c                          22.2866
_cell_angle_alpha                       120
_cell_angle_beta                        90
_cell_angle_gamma                       90
_symmetry_space_group_name_H-M          'P 1'
_symmetry_int_tables_number             1
loop_
  _symmetry_equiv_pos_as_xyz
         'x, y, z' 
loop_
  _atom_site_label
  _atom_site_occupancy
  _atom_site_fract_x
  _atom_site_fract_y
  _atom_site_fract_z
  _atom_site_thermal_displace_type
  _atom_site_B_iso_or_equiv
  _atom_site_type_symbol
  _atom_site_charge
         C1        1.0000    0.44680   0.75190   0.59230   Biso      1.000     C          -0.021778           
         C2        1.0000    0.94760   0.48030   0.28470   Biso      1.000     C          -0.12211  
         C3        1.0000    0.44680   0.15960   0.40770   Biso      1.000     C          -0.024538           
         C4        1.0000    0.38250   0.09570   0.37200   Biso      1.000     C          0.580133  
         C5        1.0000    0.44760   0.19560   0.48030   Biso      1.000     C          -0.121355           
         C6        1.0000    0.44680   0.24810   0.84040   Biso      1.000     C          -0.021805           
         C7        1.0000    0.38250   0.27630   0.90430   Biso      1.000     C          0.579398  
         C8        1.0000    0.44760   0.28470   0.80440   Biso      1.000     C          -0.12212  
         C9        1.0000    0.44680   0.59230   0.75190   Biso      1.000     C          -0.021906           
         C10       1.0000    0.38250   0.62800   0.72370   Biso      1.000     C          0.579342  
         C11       1.0000    0.44760   0.51970   0.71530   Biso      1.000     C          -0.122014           
         C12       1.0000    0.55320   0.24810   0.40770   Biso      1.000     C          -0.021913           
         C13       1.0000    0.61750   0.27630   0.37200   Biso      1.000     C          0.579344  
         C14       1.0000    0.88250   0.37200   0.27630   Biso      1.000     C          0.579387  
         C15       1.0000    0.55240   0.28470   0.48030   Biso      1.000     C          -0.121995           
         C16       1.0000    0.61750   0.62800   0.90430   Biso      1.000     C          0.580133  
         C17       1.0000    0.55240   0.51970   0.80440   Biso      1.000     C          -0.121378           
         C18       1.0000    0.55320   0.15960   0.75190   Biso      1.000     C          -0.02179  
         C19       1.0000    0.61750   0.09570   0.72370   Biso      1.000     C          0.579394  
         C20       1.0000    0.55240   0.19560   0.71530   Biso      1.000     C          -0.122114           
         C21       1.0000    0.05320   0.75190   0.59230   Biso      1.000     C          -0.021778           
         C22       1.0000    0.11750   0.72370   0.62800   Biso      1.000     C          0.579383  
         C23       1.0000    0.05240   0.71530   0.51970   Biso      1.000     C          -0.12212  
         C24       1.0000    0.05320   0.40770   0.15960   Biso      1.000     C          -0.021808           
         C25       1.0000    0.11750   0.37200   0.09570   Biso      1.000     C          0.579403  
         C26       1.0000    0.05240   0.48030   0.19560   Biso      1.000     C          -0.12212  
         C27       1.0000    0.05320   0.84040   0.24810   Biso      1.000     C          -0.024674           
         C28       1.0000    0.55320   0.59230   0.84040   Biso      1.000     C          -0.024536           
         C29       1.0000    0.11750   0.90430   0.27630   Biso      1.000     C          0.580075  
         C30       1.0000    0.94680   0.40770   0.24810   Biso      1.000     C          -0.02179  
         C31       1.0000    0.88250   0.72370   0.09570   Biso      1.000     C          0.580069  
         C32       1.0000    0.55240   0.71530   0.19560   Biso      1.000     C          -0.12124  
         C33       1.0000    0.55320   0.40770   0.24810   Biso      1.000     C          -0.021789           
         C34       1.0000    0.61750   0.37200   0.27630   Biso      1.000     C          0.579386  
         C35       1.0000    0.55240   0.48030   0.28470   Biso      1.000     C          -0.12211  
         C36       1.0000    0.55240   0.80440   0.51970   Biso      1.000     C          -0.12214  
         C37       1.0000    0.38250   0.72370   0.62800   Biso      1.000     C          0.579383  
         C38       1.0000    0.44760   0.71530   0.51970   Biso      1.000     C          -0.12212  
         C39       1.0000    0.44680   0.40770   0.15960   Biso      1.000     C          -0.021807           
         C40       1.0000    0.38250   0.37200   0.09570   Biso      1.000     C          0.579403  
         C41       1.0000    0.44760   0.48030   0.19560   Biso      1.000     C          -0.12212  
         C42       1.0000    0.44680   0.84040   0.24810   Biso      1.000     C          -0.024674           
         C43       1.0000    0.38250   0.90430   0.27630   Biso      1.000     C          0.580075  
         C44       1.0000    0.94760   0.71530   0.19560   Biso      1.000     C          -0.12124  
         C45       1.0000    0.44760   0.80440   0.28470   Biso      1.000     C          -0.121251           
         C46       1.0000    0.88250   0.27630   0.37200   Biso      1.000     C          0.579343  
         C47       1.0000    0.94760   0.28470   0.48030   Biso      1.000     C          -0.121995           
         C48       1.0000    0.94680   0.59230   0.84040   Biso      1.000     C          -0.024537           
         C49       1.0000    0.88250   0.62800   0.90430   Biso      1.000     C          0.580133  
         C50       1.0000    0.94760   0.51970   0.80440   Biso      1.000     C          -0.121378           
         C51       1.0000    0.94680   0.15960   0.75190   Biso      1.000     C          -0.021789           
         C52       1.0000    0.88250   0.09570   0.72370   Biso      1.000     C          0.579394  
         C53       1.0000    0.94760   0.19560   0.71530   Biso      1.000     C          -0.122114           
         C54       1.0000    0.94680   0.84040   0.59230   Biso      1.000     C          -0.021817           
         C55       1.0000    0.88250   0.90430   0.62800   Biso      1.000     C          0.579402  
         C56       1.0000    0.94760   0.80440   0.51970   Biso      1.000     C          -0.12214  
         C57       1.0000    0.94680   0.75190   0.15960   Biso      1.000     C          -0.024643           
         C58       1.0000    0.94680   0.24810   0.40770   Biso      1.000     C          -0.021912           
         C59       1.0000    0.05240   0.80440   0.28470   Biso      1.000     C          -0.121251           
         C60       1.0000    0.61750   0.90430   0.62800   Biso      1.000     C          0.579401  
         C61       1.0000    0.55320   0.84040   0.59230   Biso      1.000     C          -0.021816           
         C62       1.0000    0.00000   0.48250   0.74125   Biso      1.000     C          0.064828  
         C63       1.0000    0.00000   0.62930   0.81465   Biso      1.000     C          -0.093149           
         C64       1.0000    0.00000   0.29690   0.59380   Biso      1.000     C          0.080864  
         C65       1.0000    0.00000   0.25875   0.51750   Biso      1.000     C          0.064867  
         C66       1.0000    0.00000   0.18535   0.37070   Biso      1.000     C          -0.093158           
         C67       1.0000    0.50000   0.70310   0.29690   Biso      1.000     C          0.080866  
         C68       1.0000    0.50000   0.74125   0.25875   Biso      1.000     C          0.0647    
         C69       1.0000    0.50000   0.81465   0.18535   Biso      1.000     C          -0.092821           
         C70       1.0000    0.50000   0.59380   0.29690   Biso      1.000     C          0.080881  
         C71       1.0000    0.50000   0.51750   0.25875   Biso      1.000     C          0.065015  
         C72       1.0000    0.50000   0.37070   0.18535   Biso      1.000     C          -0.093471           
         C73       1.0000    0.50000   0.70310   0.40620   Biso      1.000     C          0.080908  
         C74       1.0000    0.00000   0.40620   0.70310   Biso      1.000     C          0.0809    
         C75       1.0000    0.50000   0.74125   0.48250   Biso      1.000     C          0.064983  
         C76       1.0000    0.00000   0.63060   0.26120   Biso      1.000     C          -0.179842           
         C77       1.0000    0.00000   0.63060   0.36940   Biso      1.000     C          -0.179851           
         C78       1.0000    0.00000   0.73880   0.36940   Biso      1.000     C          -0.179829           
         C79       1.0000    0.50000   0.36940   0.73880   Biso      1.000     C          -0.17984  
         C80       1.0000    0.50000   0.36940   0.63060   Biso      1.000     C          -0.179819           
         C81       1.0000    0.50000   0.26120   0.63060   Biso      1.000     C          -0.179857           
         C82       1.0000    0.00000   0.36940   0.73880   Biso      1.000     C          -0.179839           
         C83       1.0000    0.00000   0.36940   0.63060   Biso      1.000     C          -0.179819           
         C84       1.0000    0.00000   0.26120   0.63060   Biso      1.000     C          -0.179857           
         C85       1.0000    0.50000   0.63060   0.26120   Biso      1.000     C          -0.179842           
         C86       1.0000    0.50000   0.63060   0.36940   Biso      1.000     C          -0.179851           
         C87       1.0000    0.50000   0.73880   0.36940   Biso      1.000     C          -0.179829           
         C88       1.0000    0.50000   0.81465   0.62930   Biso      1.000     C          -0.093465           
         C89       1.0000    0.00000   0.18535   0.81465   Biso      1.000     C          -0.09345  
         C90       1.0000    0.00000   0.25875   0.74125   Biso      1.000     C          0.065008  
         C91       1.0000    0.00000   0.29690   0.70310   Biso      1.000     C          0.080884  
         C92       1.0000    0.05240   0.51970   0.71530   Biso      1.000     C          -0.122014           
         C93       1.0000    0.11750   0.62800   0.72370   Biso      1.000     C          0.579341  
         C94       1.0000    0.05320   0.59230   0.75190   Biso      1.000     C          -0.021904           
         C95       1.0000    0.05240   0.28470   0.80440   Biso      1.000     C          -0.122121           
         C96       1.0000    0.11750   0.27630   0.90430   Biso      1.000     C          0.579398  
         C97       1.0000    0.05320   0.24810   0.84040   Biso      1.000     C          -0.021804           
         C98       1.0000    0.05240   0.19560   0.48030   Biso      1.000     C          -0.121355           
         C99       1.0000    0.11750   0.09570   0.37200   Biso      1.000     C          0.580134  
         C100      1.0000    0.05320   0.15960   0.40770   Biso      1.000     C          -0.024538           
         C101      1.0000    0.00000   0.70310   0.29690   Biso      1.000     C          0.080866  
         C102      1.0000    0.00000   0.74125   0.25875   Biso      1.000     C          0.0647    
         C103      1.0000    0.00000   0.81465   0.18535   Biso      1.000     C          -0.09282  
         C104      1.0000    0.00000   0.59380   0.29690   Biso      1.000     C          0.080881  
         C105      1.0000    0.00000   0.51750   0.25875   Biso      1.000     C          0.065015  
         C106      1.0000    0.00000   0.37070   0.18535   Biso      1.000     C          -0.093471           
         C107      1.0000    0.00000   0.70310   0.40620   Biso      1.000     C          0.080909  
         C108      1.0000    0.00000   0.74125   0.48250   Biso      1.000     C          0.064983  
         C109      1.0000    0.00000   0.81465   0.62930   Biso      1.000     C          -0.093464           
         C110      1.0000    0.50000   0.29690   0.70310   Biso      1.000     C          0.080884  
         C111      1.0000    0.50000   0.25875   0.74125   Biso      1.000     C          0.065008  
         C112      1.0000    0.50000   0.18535   0.81465   Biso      1.000     C          -0.09345  
         C113      1.0000    0.50000   0.40620   0.70310   Biso      1.000     C          0.0809    
         C114      1.0000    0.50000   0.48250   0.74125   Biso      1.000     C          0.064828  
         C115      1.0000    0.50000   0.62930   0.81465   Biso      1.000     C          -0.093148           
         C116      1.0000    0.50000   0.29690   0.59380   Biso      1.000     C          0.080864  
         C117      1.0000    0.50000   0.25875   0.51750   Biso      1.000     C          0.064867  
         C118      1.0000    0.50000   0.18535   0.37070   Biso      1.000     C          -0.093158           
         C119      1.0000    0.61750   0.72370   0.09570   Biso      1.000     C          0.58007   
         C120      1.0000    0.55320   0.75190   0.15960   Biso      1.000     C          -0.024642           
         Cu1       1.0000    0.25000   0.00000   0.37910   Biso      1.000     Cu          0.855075  
         Cu2       1.0000    0.75000   0.00000   0.62090   Biso      1.000     Cu          0.855056  
         Cu3       1.0000    0.75000   0.26870   0.26870   Biso      1.000     Cu          0.81918   
         Cu4       1.0000    0.75000   0.73130   0.00000   Biso      1.000     Cu          0.830803  
         Cu5       1.0000    0.75000   0.62090   0.00000   Biso      1.000     Cu          0.855064  
         Cu6       1.0000    0.75000   0.00000   0.73130   Biso      1.000     Cu          0.819345  
         Cu7       1.0000    0.75000   0.37910   0.37910   Biso      1.000     Cu          0.855155  
         Cu8       1.0000    0.25000   0.62090   0.62090   Biso      1.000     Cu          0.855072  
         Cu9       1.0000    0.25000   0.26870   0.00000   Biso      1.000     Cu          0.819398  
         Cu10      1.0000    0.25000   0.37910   0.00000   Biso      1.000     Cu          0.855136  
         Cu11      1.0000    0.25000   0.00000   0.26870   Biso      1.000     Cu          0.830845  
         Cu12      1.0000    0.25000   0.73130   0.73130   Biso      1.000     Cu          0.819069  
         H1        1.0000    0.90400   0.50720   0.33310   Biso      1.000     H          0.118928  
         H2        1.0000    0.40400   0.82590   0.33310   Biso      1.000     H          0.118779  
         H3        1.0000    0.90400   0.33310   0.50720   Biso      1.000     H          0.118906  
         H4        1.0000    0.90400   0.49280   0.82590   Biso      1.000     H          0.118789  
         H5        1.0000    0.90400   0.17410   0.66690   Biso      1.000     H          0.118913  
         H6        1.0000    0.90400   0.82590   0.49280   Biso      1.000     H          0.1189    
         H7        1.0000    0.90400   0.66690   0.17410   Biso      1.000     H          0.11878   
         H8        1.0000    0.40400   0.17410   0.50720   Biso      1.000     H          0.118809  
         H9        1.0000    0.59600   0.17410   0.66690   Biso      1.000     H          0.118913  
         H10       1.0000    0.40400   0.49280   0.66690   Biso      1.000     H          0.118885  
         H11       1.0000    0.59600   0.33310   0.50720   Biso      1.000     H          0.118906  
         H12       1.0000    0.59600   0.49280   0.82590   Biso      1.000     H          0.118789  
         H13       1.0000    0.40400   0.50720   0.17410   Biso      1.000     H          0.118919  
         H14       1.0000    0.09600   0.66690   0.49280   Biso      1.000     H          0.118911  
         H15       1.0000    0.09600   0.50720   0.17410   Biso      1.000     H          0.118919  
         H16       1.0000    0.09600   0.82590   0.33310   Biso      1.000     H          0.118779  
         H17       1.0000    0.40400   0.33310   0.82590   Biso      1.000     H          0.118916  
         H18       1.0000    0.40400   0.66690   0.49280   Biso      1.000     H          0.118911  
         H19       1.0000    0.50000   0.79540   0.39770   Biso      1.000     H          0.107944  
         H20       1.0000    0.59600   0.66690   0.17410   Biso      1.000     H          0.11878   
         H21       1.0000    0.59600   0.50720   0.33310   Biso      1.000     H          0.118928  
         H22       1.0000    0.50000   0.60230   0.39770   Biso      1.000     H          0.107969  
         H23       1.0000    0.50000   0.60230   0.20460   Biso      1.000     H          0.10794   
         H24       1.0000    0.00000   0.20460   0.60230   Biso      1.000     H          0.107934  
         H25       1.0000    0.00000   0.39770   0.79540   Biso      1.000     H          0.107945  
         H26       1.0000    0.50000   0.20460   0.60230   Biso      1.000     H          0.107934  
         H27       1.0000    0.50000   0.39770   0.60230   Biso      1.000     H          0.107975  
         H28       1.0000    0.50000   0.39770   0.79540   Biso      1.000     H          0.107945  
         H29       1.0000    0.00000   0.79540   0.39770   Biso      1.000     H          0.107944  
         H30       1.0000    0.00000   0.60230   0.39770   Biso      1.000     H          0.10797   
         H31       1.0000    0.00000   0.60230   0.20460   Biso      1.000     H          0.10794   
         H32       1.0000    0.50000   0.84285   0.68570   Biso      1.000     H          0.134191  
         H33       1.0000    0.50000   0.31430   0.15715   Biso      1.000     H          0.1342    
         H34       1.0000    0.00000   0.39770   0.60230   Biso      1.000     H          0.107975  
         H35       1.0000    0.00000   0.15715   0.31430   Biso      1.000     H          0.133887  
         H36       1.0000    0.50000   0.84285   0.15715   Biso      1.000     H          0.133607  
         H37       1.0000    0.09600   0.49280   0.66690   Biso      1.000     H          0.118885  
         H38       1.0000    0.09600   0.33310   0.82590   Biso      1.000     H          0.118916  
         H39       1.0000    0.00000   0.84285   0.15715   Biso      1.000     H          0.133607  
         H40       1.0000    0.00000   0.31430   0.15715   Biso      1.000     H          0.1342    
         H41       1.0000    0.09600   0.17410   0.50720   Biso      1.000     H          0.118809  
         H42       1.0000    0.50000   0.15715   0.84285   Biso      1.000     H          0.134222  
         H43       1.0000    0.00000   0.68570   0.84285   Biso      1.000     H          0.133886  
         H44       1.0000    0.00000   0.84285   0.68570   Biso      1.000     H          0.134191  
         H45       1.0000    0.00000   0.15715   0.84285   Biso      1.000     H          0.134222  
         H46       1.0000    0.50000   0.15715   0.31430   Biso      1.000     H          0.133887  
         H47       1.0000    0.59600   0.82590   0.49280   Biso      1.000     H          0.118901  
         H48       1.0000    0.50000   0.68570   0.84285   Biso      1.000     H          0.133886  
         O1        1.0000    0.85770   0.69100   0.92660   Biso      1.000     O          -0.504732           
         O2        1.0000    0.85500   0.58950   0.92920   Biso      1.000     O          -0.526451           
         O3        1.0000    0.85500   0.33970   0.41050   Biso      1.000     O          -0.525269           
         O4        1.0000    0.35770   0.92660   0.23560   Biso      1.000     O          -0.504786           
         O5        1.0000    0.85500   0.07080   0.66030   Biso      1.000     O          -0.52529  
         O6        1.0000    0.35500   0.92920   0.33970   Biso      1.000     O          -0.526428           
         O7        1.0000    0.35770   0.30900   0.07340   Biso      1.000     O          -0.505228           
         O8        1.0000    0.35500   0.41050   0.07080   Biso      1.000     O          -0.525263           
         O9        1.0000    0.35770   0.76440   0.69100   Biso      1.000     O          -0.505307           
         O10       1.0000    0.85770   0.23560   0.30900   Biso      1.000     O          -0.505392           
         O11       1.0000    0.64230   0.92660   0.69100   Biso      1.000     O          -0.505229           
         O12       1.0000    0.64230   0.30900   0.23560   Biso      1.000     O          -0.505264           
         O13       1.0000    0.64500   0.41050   0.33970   Biso      1.000     O          -0.525266           
         O14       1.0000    0.64230   0.76440   0.07340   Biso      1.000     O          -0.504859           
         O15       1.0000    0.64500   0.66030   0.07080   Biso      1.000     O          -0.526475           
         O16       1.0000    0.64500   0.92920   0.58950   Biso      1.000     O          -0.525285           
         O17       1.0000    0.14230   0.69100   0.76440   Biso      1.000     O          -0.505436           
         O18       1.0000    0.14500   0.58950   0.66030   Biso      1.000     O          -0.525337           
         O19       1.0000    0.14230   0.23560   0.92660   Biso      1.000     O          -0.5052   
         O20       1.0000    0.85770   0.07340   0.76440   Biso      1.000     O          -0.50522  
         O21       1.0000    0.14500   0.33970   0.92920   Biso      1.000     O          -0.525266           
         O22       1.0000    0.35500   0.66030   0.58950   Biso      1.000     O          -0.525332           
         O23       1.0000    0.85500   0.92920   0.58950   Biso      1.000     O          -0.525285           
         O24       1.0000    0.64500   0.58950   0.92920   Biso      1.000     O          -0.526451           
         O25       1.0000    0.85500   0.66030   0.07080   Biso      1.000     O          -0.526475           
         O26       1.0000    0.14230   0.07340   0.30900   Biso      1.000     O          -0.504678           
         O27       1.0000    0.14230   0.92660   0.23560   Biso      1.000     O          -0.504786           
         O28       1.0000    0.14500   0.92920   0.33970   Biso      1.000     O          -0.526428           
         O29       1.0000    0.14230   0.30900   0.07340   Biso      1.000     O          -0.505228           
         O30       1.0000    0.14500   0.41050   0.07080   Biso      1.000     O          -0.525263           
         O31       1.0000    0.14230   0.76440   0.69100   Biso      1.000     O          -0.505307           
         O32       1.0000    0.14500   0.66030   0.58950   Biso      1.000     O          -0.525332           
         O33       1.0000    0.64230   0.07340   0.76440   Biso      1.000     O          -0.50522  
         O34       1.0000    0.64500   0.07080   0.66030   Biso      1.000     O          -0.52529  
         O35       1.0000    0.64230   0.69100   0.92660   Biso      1.000     O          -0.504732           
         O36       1.0000    0.64230   0.23560   0.30900   Biso      1.000     O          -0.505393           
         O37       1.0000    0.64500   0.33970   0.41050   Biso      1.000     O          -0.525269           
         O38       1.0000    0.35770   0.69100   0.76440   Biso      1.000     O          -0.505435           
         O39       1.0000    0.35500   0.58950   0.66030   Biso      1.000     O          -0.525336           
         O40       1.0000    0.35770   0.23560   0.92660   Biso      1.000     O          -0.5052   
         O41       1.0000    0.35500   0.33970   0.92920   Biso      1.000     O          -0.525266           
         O42       1.0000    0.35770   0.07340   0.30900   Biso      1.000     O          -0.504678           
         O43       1.0000    0.35500   0.07080   0.41050   Biso      1.000     O          -0.526405           
         O44       1.0000    0.85770   0.30900   0.23560   Biso      1.000     O          -0.505264           
         O45       1.0000    0.85500   0.41050   0.33970   Biso      1.000     O          -0.525266           
         O46       1.0000    0.85770   0.76440   0.07340   Biso      1.000     O          -0.504859           
         O47       1.0000    0.85770   0.92660   0.69100   Biso      1.000     O          -0.505229           
         O48       1.0000    0.14500   0.07080   0.41050   Biso      1.000     O          -0.526405 