
##########################################################################
#               Crystallographic Information Format file
#               Produced by PyCifRW module
#
#  This is a CIF file.  CIF has been adopted by the International
#  Union of Crystallography as the standard for data archiving and
#  transmission.
#
#  For information on this file format, follow the CIF links at
#  http://www.iucr.org
##########################################################################

data_image0

_cell_length_a                          11.091
_cell_length_b                          11.091
_cell_length_c                          19.364
_cell_angle_alpha                       90
_cell_angle_beta                        90
_cell_angle_gamma                       120
_symmetry_space_group_name_H-M          'P 1'
_symmetry_int_tables_number             1
loop_
  _symmetry_equiv_pos_as_xyz
         'x, y, z' 
loop_
  _atom_site_label
  _atom_site_occupancy
  _atom_site_fract_x
  _atom_site_fract_y
  _atom_site_fract_z
  _atom_site_thermal_displace_type
  _atom_site_B_iso_or_equiv
  _atom_site_type_symbol
  _atom_site_charge
         C1        1.0000    0.52160   0.04320   0.43030   Biso      1.000     C          -0.281697           
         C2        1.0000    0.52160   0.04320   0.06970   Biso      1.000     C          -0.281691           
         C3        1.0000    0.54280   0.08560   0.14370   Biso      1.000     C          0.657825  
         C4        1.0000    0.52160   0.47840   0.06970   Biso      1.000     C          -0.281713           
         C5        1.0000    0.01700   0.40300   0.96450   Biso      1.000     C          0.226122  
         C6        1.0000    0.54280   0.08560   0.35630   Biso      1.000     C          0.657824  
         C7        1.0000    0.38600   0.98300   0.96450   Biso      1.000     C          0.226813  
         C8        1.0000    0.40300   0.38600   0.46450   Biso      1.000     C          0.226444  
         C9        1.0000    0.38600   0.98300   0.53550   Biso      1.000     C          0.226818  
         C10       1.0000    0.98300   0.59700   0.46450   Biso      1.000     C          0.226443  
         C11       1.0000    0.59700   0.61400   0.96450   Biso      1.000     C          0.226804  
         C12       1.0000    0.01700   0.40300   0.53550   Biso      1.000     C          0.22612   
         C13       1.0000    0.59700   0.61400   0.53550   Biso      1.000     C          0.226806  
         C14       1.0000    0.61400   0.01700   0.03550   Biso      1.000     C          0.22637   
         C15       1.0000    0.38600   0.40300   0.96450   Biso      1.000     C          0.226812  
         C16       1.0000    0.98300   0.59700   0.03550   Biso      1.000     C          0.226446  
         C17       1.0000    0.59700   0.98300   0.96450   Biso      1.000     C          0.226836  
         C18       1.0000    0.40300   0.38600   0.03550   Biso      1.000     C          0.226487  
         C19       1.0000    0.98300   0.38600   0.46450   Biso      1.000     C          0.22646   
         C20       1.0000    0.01700   0.61400   0.96450   Biso      1.000     C          0.226147  
         C21       1.0000    0.40300   0.01700   0.46450   Biso      1.000     C          0.226464  
         C22       1.0000    0.61400   0.01700   0.46450   Biso      1.000     C          0.226376  
         C23       1.0000    0.91440   0.45720   0.14370   Biso      1.000     C          0.658856  
         C24       1.0000    0.54280   0.45720   0.14370   Biso      1.000     C          0.657901  
         C25       1.0000    0.45720   0.54280   0.64370   Biso      1.000     C          0.659571  
         C26       1.0000    0.61400   0.59700   0.03550   Biso      1.000     C          0.226436  
         C27       1.0000    0.95680   0.47840   0.43030   Biso      1.000     C          -0.282819           
         C28       1.0000    0.91440   0.45720   0.35630   Biso      1.000     C          0.658848  
         C29       1.0000    0.52160   0.47840   0.43030   Biso      1.000     C          -0.281695           
         C30       1.0000    0.40300   0.01700   0.03550   Biso      1.000     C          0.226457  
         C31       1.0000    0.54280   0.45720   0.35630   Biso      1.000     C          0.6579    
         C32       1.0000    0.47840   0.95680   0.93030   Biso      1.000     C          -0.282625           
         C33       1.0000    0.45720   0.91440   0.85630   Biso      1.000     C          0.659557  
         C34       1.0000    0.98300   0.38600   0.03550   Biso      1.000     C          0.226461  
         C35       1.0000    0.04320   0.52160   0.93030   Biso      1.000     C          -0.282136           
         C36       1.0000    0.08560   0.54280   0.85630   Biso      1.000     C          0.656776  
         C37       1.0000    0.95680   0.47840   0.06970   Biso      1.000     C          -0.282828           
         C38       1.0000    0.47840   0.52160   0.93030   Biso      1.000     C          -0.2826   
         C39       1.0000    0.38600   0.40300   0.53550   Biso      1.000     C          0.226846  
         C40       1.0000    0.61400   0.59700   0.46450   Biso      1.000     C          0.226437  
         C41       1.0000    0.45720   0.54280   0.85630   Biso      1.000     C          0.65957   
         C42       1.0000    0.01700   0.61400   0.53550   Biso      1.000     C          0.226148  
         C43       1.0000    0.04320   0.52160   0.56970   Biso      1.000     C          -0.282136           
         C44       1.0000    0.47840   0.52160   0.56970   Biso      1.000     C          -0.282606           
         C45       1.0000    0.08560   0.54280   0.64370   Biso      1.000     C          0.656773  
         C46       1.0000    0.45720   0.91440   0.64370   Biso      1.000     C          0.659555  
         C47       1.0000    0.59700   0.98300   0.53550   Biso      1.000     C          0.226842  
         C48       1.0000    0.47840   0.95680   0.56970   Biso      1.000     C          -0.282628           
         Fe1       1.0000    0.76655   0.53310   0.25000   Biso      1.000     Fe          1.172715  
         Fe2       1.0000    0.46690   0.23345   0.25000   Biso      1.000     Fe          1.155014  
         Fe3       1.0000    0.76655   0.23345   0.25000   Biso      1.000     Fe          1.17509   
         Fe4       1.0000    0.23345   0.46690   0.75000   Biso      1.000     Fe          1.169277  
         Fe5       1.0000    0.53310   0.76655   0.75000   Biso      1.000     Fe          1.161806  
         Fe6       1.0000    0.23345   0.76655   0.75000   Biso      1.000     Fe          1.169222  
         H1        1.0000    0.29710   0.01410   0.38890   Biso      1.000     H          0.390257  
         H2        1.0000    0.98590   0.70290   0.11110   Biso      1.000     H          0.389925  
         H3        1.0000    0.29710   0.28300   0.11110   Biso      1.000     H          0.390271  
         H4        1.0000    0.28300   0.98590   0.61110   Biso      1.000     H          0.390329  
         H5        1.0000    0.71700   0.01410   0.11110   Biso      1.000     H          0.390507  
         H6        1.0000    0.70290   0.71700   0.61110   Biso      1.000     H          0.39024   
         H7        1.0000    0.98590   0.28300   0.38890   Biso      1.000     H          0.389919  
         H8        1.0000    0.01410   0.29710   0.61110   Biso      1.000     H          0.390063  
         H9        1.0000    0.71700   0.70290   0.38890   Biso      1.000     H          0.390512  
         H10       1.0000    0.29710   0.28300   0.38890   Biso      1.000     H          0.39027   
         H11       1.0000    0.01410   0.29710   0.88890   Biso      1.000     H          0.390067  
         H12       1.0000    0.98590   0.70290   0.38890   Biso      1.000     H          0.389923  
         H13       1.0000    0.70290   0.71700   0.88890   Biso      1.000     H          0.39024   
         H14       1.0000    0.01410   0.71700   0.61110   Biso      1.000     H          0.390063  
         H15       1.0000    0.71700   0.01410   0.38890   Biso      1.000     H          0.390507  
         H16       1.0000    0.70290   0.98590   0.61110   Biso      1.000     H          0.390233  
         H17       1.0000    0.28300   0.29710   0.88890   Biso      1.000     H          0.39034   
         H18       1.0000    0.28300   0.29710   0.61110   Biso      1.000     H          0.39034   
         H19       1.0000    0.98590   0.28300   0.11110   Biso      1.000     H          0.389923  
         H20       1.0000    0.28300   0.98590   0.88890   Biso      1.000     H          0.39033   
         H21       1.0000    0.70290   0.98590   0.88890   Biso      1.000     H          0.390233  
         H22       1.0000    0.29710   0.01410   0.11110   Biso      1.000     H          0.390258  
         H23       1.0000    0.01410   0.71700   0.88890   Biso      1.000     H          0.390066  
         H24       1.0000    0.71700   0.70290   0.11110   Biso      1.000     H          0.390514  
         O1        1.0000    0.34820   0.44960   0.67280   Biso      1.000     O          -0.571791           
         O2        1.0000    0.34820   0.89860   0.82720   Biso      1.000     O          -0.571779           
         O3        1.0000    0.72300   0.71600   0.06920   Biso      1.000     O          -0.449168           
         O4        1.0000    0.66667   0.33333   0.25000   Biso      1.000     O          -0.930014           
         O5        1.0000    0.33333   0.66667   0.75000   Biso      1.000     O          -0.930538           
         O6        1.0000    0.00700   0.28400   0.93080   Biso      1.000     O          -0.44941  
         O7        1.0000    0.10140   0.44960   0.82720   Biso      1.000     O          -0.568015           
         O8        1.0000    0.71600   0.72300   0.93080   Biso      1.000     O          -0.449206           
         O9        1.0000    0.55040   0.65180   0.82720   Biso      1.000     O          -0.569576           
         O10       1.0000    0.44960   0.10140   0.17280   Biso      1.000     O          -0.568777           
         O11       1.0000    0.28400   0.00700   0.06920   Biso      1.000     O          -0.449303           
         O12       1.0000    0.00700   0.72300   0.56920   Biso      1.000     O          -0.449418           
         O13       1.0000    0.10140   0.65180   0.67280   Biso      1.000     O          -0.568001           
         O14       1.0000    0.27700   0.99300   0.93080   Biso      1.000     O          -0.44906  
         O15       1.0000    0.55040   0.89860   0.67280   Biso      1.000     O          -0.569581           
         O16       1.0000    0.89860   0.34820   0.17280   Biso      1.000     O          -0.568516           
         O17       1.0000    0.27700   0.28400   0.56920   Biso      1.000     O          -0.449064           
         O18       1.0000    0.99300   0.27700   0.06920   Biso      1.000     O          -0.449222           
         O19       1.0000    0.71600   0.99300   0.56920   Biso      1.000     O          -0.449212           
         O20       1.0000    0.65180   0.55040   0.32720   Biso      1.000     O          -0.572446           
         O21       1.0000    0.28400   0.27700   0.43080   Biso      1.000     O          -0.449303           
         O22       1.0000    0.44960   0.10140   0.32720   Biso      1.000     O          -0.568778           
         O23       1.0000    0.28400   0.00700   0.43080   Biso      1.000     O          -0.449303           
         O24       1.0000    0.00700   0.72300   0.93080   Biso      1.000     O          -0.449412           
         O25       1.0000    0.89860   0.34820   0.32720   Biso      1.000     O          -0.568514           
         O26       1.0000    0.10140   0.65180   0.82720   Biso      1.000     O          -0.568003           
         O27       1.0000    0.99300   0.27700   0.43080   Biso      1.000     O          -0.449229           
         O28       1.0000    0.44960   0.34820   0.17280   Biso      1.000     O          -0.568921           
         O29       1.0000    0.71600   0.99300   0.93080   Biso      1.000     O          -0.44921  
         O30       1.0000    0.28400   0.27700   0.06920   Biso      1.000     O          -0.449304           
         O31       1.0000    0.55040   0.89860   0.82720   Biso      1.000     O          -0.56958  
         O32       1.0000    0.89860   0.55040   0.17280   Biso      1.000     O          -0.568251           
         O33       1.0000    0.99300   0.71600   0.06920   Biso      1.000     O          -0.449231           
         O34       1.0000    0.27700   0.28400   0.93080   Biso      1.000     O          -0.449058           
         O35       1.0000    0.65180   0.10140   0.17280   Biso      1.000     O          -0.572632           
         O36       1.0000    0.34820   0.44960   0.82720   Biso      1.000     O          -0.571791           
         O37       1.0000    0.72300   0.00700   0.06920   Biso      1.000     O          -0.449147           
         O38       1.0000    0.55040   0.65180   0.67280   Biso      1.000     O          -0.569576           
         O39       1.0000    0.72300   0.00700   0.43080   Biso      1.000     O          -0.449148           
         O40       1.0000    0.71600   0.72300   0.56920   Biso      1.000     O          -0.449208           
         O41       1.0000    0.65180   0.10140   0.32720   Biso      1.000     O          -0.572632           
         O42       1.0000    0.10140   0.44960   0.67280   Biso      1.000     O          -0.568014           
         O43       1.0000    0.00700   0.28400   0.56920   Biso      1.000     O          -0.449417           
         O44       1.0000    0.99300   0.71600   0.43080   Biso      1.000     O          -0.449239           
         O45       1.0000    0.34820   0.89860   0.67280   Biso      1.000     O          -0.571779           
         O46       1.0000    0.89860   0.55040   0.32720   Biso      1.000     O          -0.568249           
         O47       1.0000    0.27700   0.99300   0.56920   Biso      1.000     O          -0.449062           
         O48       1.0000    0.72300   0.71600   0.43080   Biso      1.000     O          -0.449171           
         O49       1.0000    0.44960   0.34820   0.32720   Biso      1.000     O          -0.568921           
         O50       1.0000    0.65180   0.55040   0.17280   Biso      1.000     O          -0.572447 