
##########################################################################
#               Crystallographic Information Format file
#               Produced by PyCifRW module
#
#  This is a CIF file.  CIF has been adopted by the International
#  Union of Crystallography as the standard for data archiving and
#  transmission.
#
#  For information on this file format, follow the CIF links at
#  http://www.iucr.org
##########################################################################

data_image0

_cell_length_a                          9.4642
_cell_length_b                          11.474
_cell_length_c                          14.575
_cell_angle_alpha                       69.77
_cell_angle_beta                        85.43
_cell_angle_gamma                       86.44
_symmetry_space_group_name_H-M          'P 1'
_symmetry_int_tables_number             1
loop_
  _symmetry_equiv_pos_as_xyz
         'x, y, z' 
loop_
  _atom_site_label
  _atom_site_occupancy
  _atom_site_fract_x
  _atom_site_fract_y
  _atom_site_fract_z
  _atom_site_thermal_displace_type
  _atom_site_B_iso_or_equiv
  _atom_site_type_symbol
  _atom_site_charge
         C1        1.0000    0.11340   0.80370   0.31960   Biso      1.000     C          0.125687  
         C2        1.0000    0.00260   0.21800   0.87220   Biso      1.000     C          0.734967  
         C3        1.0000    0.91120   0.31850   0.80480   Biso      1.000     C          -0.36595900000000003          
         C4        1.0000    0.92760   0.01750   0.51930   Biso      1.000     C          -0.251722           
         C5        1.0000    0.98320   0.30340   0.31530   Biso      1.000     C          0.10830799999999999           
         C6        1.0000    0.88720   0.16000   0.22030   Biso      1.000     C          -0.36301500000000003          
         C7        1.0000    0.94220   0.09340   0.58290   Biso      1.000     C          0.22077   
         C8        1.0000    0.99540   0.40610   0.41510   Biso      1.000     C          0.241668  
         C9        1.0000    0.05620   0.47060   0.47530   Biso      1.000     C          -0.244392           
         C10       1.0000    0.57890   0.80000   0.81920   Biso      1.000     C          -0.37261500000000003          
         C11       1.0000    0.40190   0.61490   0.91210   Biso      1.000     C          0.15956900000000002           
         C12       1.0000    0.18980   0.54600   0.96030   Biso      1.000     C          0.24443800000000002           
         C13       1.0000    0.05950   0.47480   0.97200   Biso      1.000     C          -0.263823           
         C14       1.0000    0.88660   0.19630   0.68040   Biso      1.000     C          0.12568800000000002           
         C15       1.0000    0.07510   0.90200   0.85590   Biso      1.000     C          0.766649  
         C16       1.0000    0.08880   0.68150   0.19520   Biso      1.000     C          -0.36595900000000003          
         C17       1.0000    0.07240   0.98250   0.48070   Biso      1.000     C          -0.25172100000000003          
         C18       1.0000    0.01680   0.69660   0.68470   Biso      1.000     C          0.10830799999999999           
         C19       1.0000    0.11280   0.84000   0.77970   Biso      1.000     C          -0.363014           
         C20       1.0000    0.05780   0.90660   0.41710   Biso      1.000     C          0.22077   
         C21       1.0000    0.00460   0.59390   0.58490   Biso      1.000     C          0.241668  
         C22       1.0000    0.94380   0.52940   0.52470   Biso      1.000     C          -0.244391           
         C23       1.0000    0.42110   0.20000   0.18080   Biso      1.000     C          -0.37261500000000003          
         C24       1.0000    0.35930   0.15310   0.10820   Biso      1.000     C          0.672776  
         C25       1.0000    0.59810   0.38510   0.08790   Biso      1.000     C          0.15956900000000002           
         C26       1.0000    0.81020   0.45400   0.03970   Biso      1.000     C          0.244439  
         C27       1.0000    0.94050   0.52520   0.02800   Biso      1.000     C          -0.263824           
         C28       1.0000    0.99740   0.78200   0.12780   Biso      1.000     C          0.734967  
         C29       1.0000    0.92490   0.09800   0.14410   Biso      1.000     C          0.766649  
         C30       1.0000    0.64070   0.84690   0.89180   Biso      1.000     C          0.672776  
         H1        1.0000    0.88130   0.46590   0.56660   Biso      1.000     H          0.113324  
         H2        1.0000    0.48370   0.83640   0.80800   Biso      1.000     H          0.17413900000000002           
         H3        1.0000    0.62640   0.11850   0.67230   Biso      1.000     H          0.349123  
         H4        1.0000    0.66970   0.04510   0.60740   Biso      1.000     H          0.341161  
         H5        1.0000    0.11240   0.41100   0.52450   Biso      1.000     H          0.13516   
         H6        1.0000    0.11870   0.53410   0.43340   Biso      1.000     H          0.113324  
         H7        1.0000    0.81410   0.22460   0.19780   Biso      1.000     H          0.164226  
         H8        1.0000    0.85270   0.09950   0.28170   Biso      1.000     H          0.166444  
         H9        1.0000    0.26020   0.28500   0.32000   Biso      1.000     H          0.31594099999999997           
         H10       1.0000    0.27590   0.34810   0.39220   Biso      1.000     H          0.355298  
         H11       1.0000    0.87170   0.06450   0.46460   Biso      1.000     H          0.130449  
         H12       1.0000    0.87800   0.94260   0.55660   Biso      1.000     H          0.10796199999999999           
         H13       1.0000    0.26300   0.48000   0.80900   Biso      1.000     H          0.307069  
         H14       1.0000    0.18590   0.77540   0.80220   Biso      1.000     H          0.164226  
         H15       1.0000    0.97170   0.37180   0.75200   Biso      1.000     H          0.161498  
         H16       1.0000    0.86600   0.36890   0.84100   Biso      1.000     H          0.175726  
         H17       1.0000    0.63460   0.83140   0.75750   Biso      1.000     H          0.140719  
         H18       1.0000    0.02930   0.48230   0.90810   Biso      1.000     H          0.12684700000000002           
         H19       1.0000    0.32900   0.38800   0.88800   Biso      1.000     H          0.35447199999999995           
         H20       1.0000    0.36540   0.16860   0.24250   Biso      1.000     H          0.140719  
         H21       1.0000    0.88760   0.58900   0.47550   Biso      1.000     H          0.13516   
         H22       1.0000    0.33030   0.95490   0.39260   Biso      1.000     H          0.341159  
         H23       1.0000    0.37360   0.88150   0.32770   Biso      1.000     H          0.349123  
         H24       1.0000    0.51630   0.16360   0.19200   Biso      1.000     H          0.174137  
         H25       1.0000    0.07940   0.38750   0.00770   Biso      1.000     H          0.134614  
         H26       1.0000    0.97070   0.51770   0.09190   Biso      1.000     H          0.126848  
         H27       1.0000    0.92060   0.61250   0.99230   Biso      1.000     H          0.134614  
         H28       1.0000    0.73980   0.71500   0.68000   Biso      1.000     H          0.31593899999999997           
         H29       1.0000    0.14730   0.90050   0.71830   Biso      1.000     H          0.166444  
         H30       1.0000    0.12830   0.93550   0.53540   Biso      1.000     H          0.130449  
         H31       1.0000    0.12200   0.05740   0.44340   Biso      1.000     H          0.10796199999999999           
         H32       1.0000    0.73700   0.52000   0.19100   Biso      1.000     H          0.307068  
         H33       1.0000    0.67100   0.61200   0.11200   Biso      1.000     H          0.35447199999999995           
         H34       1.0000    0.02830   0.62820   0.24800   Biso      1.000     H          0.161498  
         H35       1.0000    0.13400   0.63110   0.15900   Biso      1.000     H          0.175726  
         H36       1.0000    0.72410   0.65190   0.60780   Biso      1.000     H          0.355298  
         N1        1.0000    0.05810   0.13720   0.59770   Biso      1.000     N          -0.296113           
         N2        1.0000    0.33770   0.45300   0.85020   Biso      1.000     N          -0.6108020000000001           
         N3        1.0000    0.22300   0.32390   0.35750   Biso      1.000     N          -0.671265           
         N4        1.0000    0.86330   0.39780   0.40400   Biso      1.000     N          -0.283649           
         N5        1.0000    0.30890   0.90740   0.36160   Biso      1.000     N          -0.641269           
         N6        1.0000    0.69110   0.09260   0.63840   Biso      1.000     N          -0.641269           
         N7        1.0000    0.69040   0.46750   0.09500   Biso      1.000     N          0.062279999999999995          
         N8        1.0000    0.83100   0.12760   0.63350   Biso      1.000     N          0.155737  
         N9        1.0000    0.79290   0.36780   0.00310   Biso      1.000     N          -0.265401           
         N10       1.0000    0.85400   0.33110   0.33960   Biso      1.000     N          -0.298854           
         N11       1.0000    0.34370   0.67470   0.96730   Biso      1.000     N          -0.30478099999999997          
         N12       1.0000    0.77700   0.67610   0.64250   Biso      1.000     N          -0.6712640000000001           
         N13       1.0000    0.07570   0.34760   0.36210   Biso      1.000     N          0.141921  
         N14       1.0000    0.20710   0.63220   0.99690   Biso      1.000     N          -0.265396           
         N15       1.0000    0.30960   0.53250   0.90500   Biso      1.000     N          0.062283000000000005          
         N16       1.0000    0.65630   0.32530   0.03270   Biso      1.000     N          -0.30477600000000005          
         N17       1.0000    0.16900   0.87240   0.36650   Biso      1.000     N          0.15573599999999999           
         N18       1.0000    0.66230   0.54700   0.14980   Biso      1.000     N          -0.610799           
         N19       1.0000    0.92430   0.65240   0.63790   Biso      1.000     N          0.141921  
         N20       1.0000    0.94190   0.86280   0.40230   Biso      1.000     N          -0.296113           
         N21       1.0000    0.13670   0.60220   0.59600   Biso      1.000     N          -0.283648           
         N22       1.0000    0.14600   0.66890   0.66040   Biso      1.000     N          -0.298854           
         N23       1.0000    0.02250   0.20460   0.66160   Biso      1.000     N          -0.258262           
         N24       1.0000    0.97750   0.79540   0.33840   Biso      1.000     N          -0.258262           
         O1        1.0000    0.12910   0.23980   0.87560   Biso      1.000     O          -0.6019680000000001           
         O2        1.0000    0.68690   0.77790   0.97020   Biso      1.000     O          -0.630108           
         O3        1.0000    0.64640   0.96510   0.86630   Biso      1.000     O          -0.744153           
         O4        1.0000    0.17260   0.95770   0.87465   Biso      1.000     O          -0.687242           
         O5        1.0000    0.04950   0.88420   0.07463   Biso      1.000     O          -0.795692           
         O6        1.0000    0.95000   0.89310   0.89170   Biso      1.000     O          -0.643247           
         O7        1.0000    0.87090   0.76020   0.12440   Biso      1.000     O          -0.6019680000000001           
         O8        1.0000    0.05000   0.10690   0.10830   Biso      1.000     O          -0.6432479999999999           
         O9        1.0000    0.95050   0.11580   0.92537   Biso      1.000     O          -0.795692           
         O10       1.0000    0.35360   0.03490   0.13370   Biso      1.000     O          -0.744153           
         O11       1.0000    0.31310   0.22210   0.02980   Biso      1.000     O          -0.630108           
         O12       1.0000    0.82740   0.04230   0.12535   Biso      1.000     O          -0.687242           
         S1        1.0000    0.22366   0.73775   0.24749   Biso      1.000     S          0.031392  
         S2        1.0000    0.43126   0.36555   0.14962   Biso      1.000     S          0.035364  
         S3        1.0000    0.95195   0.77401   0.76334   Biso      1.000     S          0.051784000000000004          
         S4        1.0000    0.77634   0.26225   0.75251   Biso      1.000     S          0.031392  
         S5        1.0000    0.56874   0.63445   0.85038   Biso      1.000     S          0.035364  
         S6        1.0000    0.04805   0.22599   0.23666   Biso      1.000     S          0.051784000000000004          
         Tb1       1.0000    0.20299   0.04535   0.99748   Biso      1.000     Tb          2.086843  
         Tb2       1.0000    0.79701   0.95465   0.00252   Biso      1.000     Tb          2.086841 