
##########################################################################
#               Crystallographic Information Format file
#               Produced by PyCifRW module
#
#  This is a CIF file.  CIF has been adopted by the International
#  Union of Crystallography as the standard for data archiving and
#  transmission.
#
#  For information on this file format, follow the CIF links at
#  http://www.iucr.org
##########################################################################

data_image0

_cell_length_a                          9.5104
_cell_length_b                          11.515
_cell_length_c                          14.575
_cell_angle_alpha                       69.47
_cell_angle_beta                        85.29
_cell_angle_gamma                       86.39
_symmetry_space_group_name_H-M          'P 1'
_symmetry_int_tables_number             1
loop_
  _symmetry_equiv_pos_as_xyz
         'x, y, z' 
loop_
  _atom_site_label
  _atom_site_occupancy
  _atom_site_fract_x
  _atom_site_fract_y
  _atom_site_fract_z
  _atom_site_thermal_displace_type
  _atom_site_B_iso_or_equiv
  _atom_site_type_symbol
  _atom_site_charge
         C1        1.0000    0.11340   0.80420   0.31990   Biso      1.000     C          0.122209  
         C2        1.0000    0.00450   0.22110   0.87060   Biso      1.000     C          0.730313  
         C3        1.0000    0.91200   0.31920   0.80340   Biso      1.000     C          -0.36246999999999996          
         C4        1.0000    0.92740   0.01800   0.51890   Biso      1.000     C          -0.25439  
         C5        1.0000    0.98250   0.30370   0.31600   Biso      1.000     C          0.110818  
         C6        1.0000    0.88730   0.16110   0.22150   Biso      1.000     C          -0.36146500000000004          
         C7        1.0000    0.94290   0.09450   0.58210   Biso      1.000     C          0.220548  
         C8        1.0000    0.99630   0.40660   0.41530   Biso      1.000     C          0.239402  
         C9        1.0000    0.05600   0.47030   0.47550   Biso      1.000     C          -0.24377800000000002          
         C10       1.0000    0.57850   0.79980   0.81820   Biso      1.000     C          -0.37433299999999997          
         C11       1.0000    0.40130   0.61400   0.91200   Biso      1.000     C          0.15425   
         C12       1.0000    0.18920   0.54460   0.96040   Biso      1.000     C          0.25013   
         C13       1.0000    0.05880   0.47560   0.97190   Biso      1.000     C          -0.262758           
         C14       1.0000    0.88660   0.19580   0.68010   Biso      1.000     C          0.12220999999999999           
         C15       1.0000    0.07620   0.90190   0.85290   Biso      1.000     C          0.7618159999999999  
         C16       1.0000    0.08800   0.68080   0.19660   Biso      1.000     C          -0.36246999999999996          
         C17       1.0000    0.07260   0.98200   0.48110   Biso      1.000     C          -0.254389           
         C18       1.0000    0.01750   0.69630   0.68400   Biso      1.000     C          0.110818  
         C19       1.0000    0.11270   0.83890   0.77850   Biso      1.000     C          -0.361464           
         C20       1.0000    0.05710   0.90550   0.41790   Biso      1.000     C          0.22054899999999997           
         C21       1.0000    0.00370   0.59340   0.58470   Biso      1.000     C          0.239402  
         C22       1.0000    0.94400   0.52970   0.52450   Biso      1.000     C          -0.243777           
         C23       1.0000    0.42150   0.20020   0.18180   Biso      1.000     C          -0.37433299999999997          
         C24       1.0000    0.36090   0.15310   0.10950   Biso      1.000     C          0.676393  
         C25       1.0000    0.59870   0.38600   0.08800   Biso      1.000     C          0.15425   
         C26       1.0000    0.81080   0.45540   0.03960   Biso      1.000     C          0.25013   
         C27       1.0000    0.94120   0.52440   0.02810   Biso      1.000     C          -0.262759           
         C28       1.0000    0.99550   0.77890   0.12940   Biso      1.000     C          0.730313  
         C29       1.0000    0.92380   0.09810   0.14710   Biso      1.000     C          0.761817  
         C30       1.0000    0.63910   0.84690   0.89050   Biso      1.000     C          0.676393  
         H1        1.0000    0.88110   0.46660   0.56630   Biso      1.000     H          0.11498   
         H2        1.0000    0.48420   0.83660   0.80630   Biso      1.000     H          0.17308800000000002           
         H3        1.0000    0.62840   0.11780   0.67320   Biso      1.000     H          0.348246  
         H4        1.0000    0.67020   0.04810   0.60570   Biso      1.000     H          0.34119299999999997           
         H5        1.0000    0.11120   0.41050   0.52520   Biso      1.000     H          0.135054  
         H6        1.0000    0.11890   0.53340   0.43370   Biso      1.000     H          0.11498   
         H7        1.0000    0.81530   0.22620   0.19810   Biso      1.000     H          0.163981  
         H8        1.0000    0.85210   0.10160   0.28340   Biso      1.000     H          0.166475  
         H9        1.0000    0.25970   0.28620   0.32010   Biso      1.000     H          0.31658000000000003           
         H10       1.0000    0.27480   0.35030   0.39130   Biso      1.000     H          0.354416  
         H11       1.0000    0.87250   0.06510   0.46370   Biso      1.000     H          0.130797  
         H12       1.0000    0.87730   0.94360   0.55660   Biso      1.000     H          0.108831  
         H13       1.0000    0.27100   0.47500   0.80200   Biso      1.000     H          0.327757  
         H14       1.0000    0.18470   0.77380   0.80190   Biso      1.000     H          0.163981  
         H15       1.0000    0.97090   0.37270   0.74960   Biso      1.000     H          0.161737  
         H16       1.0000    0.86660   0.36970   0.83920   Biso      1.000     H          0.177871  
         H17       1.0000    0.63490   0.83070   0.75660   Biso      1.000     H          0.141511  
         H18       1.0000    0.02870   0.48460   0.90770   Biso      1.000     H          0.127473  
         H19       1.0000    0.33600   0.39300   0.88300   Biso      1.000     H          0.398074  
         H20       1.0000    0.36510   0.16930   0.24340   Biso      1.000     H          0.141511  
         H21       1.0000    0.88880   0.58950   0.47480   Biso      1.000     H          0.135055  
         H22       1.0000    0.32980   0.95190   0.39430   Biso      1.000     H          0.34119299999999997           
         H23       1.0000    0.37160   0.88220   0.32680   Biso      1.000     H          0.348247  
         H24       1.0000    0.51580   0.16340   0.19370   Biso      1.000     H          0.173087  
         H25       1.0000    0.07780   0.38810   0.00710   Biso      1.000     H          0.134332  
         H26       1.0000    0.97130   0.51540   0.09230   Biso      1.000     H          0.127473  
         H27       1.0000    0.92220   0.61190   0.99290   Biso      1.000     H          0.134332  
         H28       1.0000    0.74030   0.71380   0.67990   Biso      1.000     H          0.316579  
         H29       1.0000    0.14790   0.89840   0.71660   Biso      1.000     H          0.166475  
         H30       1.0000    0.12750   0.93490   0.53630   Biso      1.000     H          0.130797  
         H31       1.0000    0.12270   0.05640   0.44340   Biso      1.000     H          0.108831  
         H32       1.0000    0.72900   0.52500   0.19800   Biso      1.000     H          0.327757  
         H33       1.0000    0.66400   0.60700   0.11700   Biso      1.000     H          0.398074  
         H34       1.0000    0.02910   0.62730   0.25040   Biso      1.000     H          0.161737  
         H35       1.0000    0.13340   0.63030   0.16080   Biso      1.000     H          0.177871  
         H36       1.0000    0.72520   0.64970   0.60870   Biso      1.000     H          0.354416  
         N1        1.0000    0.05820   0.13670   0.59710   Biso      1.000     N          -0.294539           
         N2        1.0000    0.33650   0.45430   0.84910   Biso      1.000     N          -0.6937369999999999           
         N3        1.0000    0.22230   0.32520   0.35720   Biso      1.000     N          -0.669346           
         N4        1.0000    0.86380   0.39950   0.40300   Biso      1.000     N          -0.28853  
         N5        1.0000    0.30770   0.90680   0.36190   Biso      1.000     N          -0.6365430000000001           
         N6        1.0000    0.69230   0.09320   0.63810   Biso      1.000     N          -0.6365430000000001           
         N7        1.0000    0.69230   0.46690   0.09490   Biso      1.000     N          0.085387  
         N8        1.0000    0.83150   0.12630   0.63390   Biso      1.000     N          0.155692  
         N9        1.0000    0.79350   0.36960   0.00180   Biso      1.000     N          -0.272864           
         N10       1.0000    0.85480   0.33200   0.33960   Biso      1.000     N          -0.293798           
         N11       1.0000    0.34330   0.67380   0.96780   Biso      1.000     N          -0.305838           
         N12       1.0000    0.77770   0.67480   0.64280   Biso      1.000     N          -0.669346           
         N13       1.0000    0.07570   0.34770   0.36220   Biso      1.000     N          0.14012   
         N14       1.0000    0.20650   0.63040   0.99820   Biso      1.000     N          -0.272858           
         N15       1.0000    0.30770   0.53310   0.90510   Biso      1.000     N          0.08538899999999999           
         N16       1.0000    0.65670   0.32620   0.03220   Biso      1.000     N          -0.30583299999999997          
         N17       1.0000    0.16850   0.87370   0.36610   Biso      1.000     N          0.155691  
         N18       1.0000    0.66350   0.54570   0.15090   Biso      1.000     N          -0.693735           
         N19       1.0000    0.92430   0.65230   0.63780   Biso      1.000     N          0.14012   
         N20       1.0000    0.94180   0.86330   0.40290   Biso      1.000     N          -0.294539           
         N21       1.0000    0.13620   0.60050   0.59700   Biso      1.000     N          -0.288529           
         N22       1.0000    0.14520   0.66800   0.66040   Biso      1.000     N          -0.293798           
         N23       1.0000    0.02340   0.20350   0.66200   Biso      1.000     N          -0.25895799999999997          
         N24       1.0000    0.97660   0.79650   0.33800   Biso      1.000     N          -0.25895799999999997          
         O1        1.0000    0.13070   0.24380   0.87280   Biso      1.000     O          -0.600748           
         O2        1.0000    0.68590   0.77710   0.96910   Biso      1.000     O          -0.63613  
         O3        1.0000    0.64340   0.96380   0.86500   Biso      1.000     O          -0.741567           
         O4        1.0000    0.17300   0.95560   0.87300   Biso      1.000     O          -0.681737           
         O5        1.0000    0.04430   0.88200   0.07450   Biso      1.000     O          -0.794704           
         O6        1.0000    0.94960   0.89680   0.88790   Biso      1.000     O          -0.6504850000000001           
         O7        1.0000    0.86930   0.75620   0.12720   Biso      1.000     O          -0.600747           
         O8        1.0000    0.05040   0.10320   0.11210   Biso      1.000     O          -0.6504850000000001           
         O9        1.0000    0.95570   0.11800   0.92550   Biso      1.000     O          -0.794704           
         O10       1.0000    0.35660   0.03620   0.13500   Biso      1.000     O          -0.741567           
         O11       1.0000    0.31410   0.22290   0.03090   Biso      1.000     O          -0.636131           
         O12       1.0000    0.82700   0.04440   0.12700   Biso      1.000     O          -0.681737           
         S1        1.0000    0.22193   0.74043   0.24659   Biso      1.000     S          0.025847000000000002          
         S2        1.0000    0.43274   0.36630   0.14956   Biso      1.000     S          0.034151  
         S3        1.0000    0.95196   0.77380   0.76259   Biso      1.000     S          0.050798  
         S4        1.0000    0.77807   0.25957   0.75341   Biso      1.000     S          0.025847000000000002          
         S5        1.0000    0.56726   0.63370   0.85044   Biso      1.000     S          0.034151  
         S6        1.0000    0.04804   0.22620   0.23741   Biso      1.000     S          0.050798  
         Sm1       1.0000    0.20382   0.04475   0.99776   Biso      1.000     Sm          2.0984380000000002  
         Sm2       1.0000    0.79618   0.95525   0.00224   Biso      1.000     Sm          2.098437 