
##########################################################################
#               Crystallographic Information Format file
#               Produced by PyCifRW module
#
#  This is a CIF file.  CIF has been adopted by the International
#  Union of Crystallography as the standard for data archiving and
#  transmission.
#
#  For information on this file format, follow the CIF links at
#  http://www.iucr.org
##########################################################################

data_image0

_cell_length_a                          9.4829
_cell_length_b                          11.505
_cell_length_c                          14.582
_cell_angle_alpha                       69.48
_cell_angle_beta                        85.36
_cell_angle_gamma                       86.32
_symmetry_space_group_name_H-M          'P 1'
_symmetry_int_tables_number             1
loop_
  _symmetry_equiv_pos_as_xyz
         'x, y, z' 
loop_
  _atom_site_label
  _atom_site_occupancy
  _atom_site_fract_x
  _atom_site_fract_y
  _atom_site_fract_z
  _atom_site_thermal_displace_type
  _atom_site_B_iso_or_equiv
  _atom_site_type_symbol
  _atom_site_charge
         C1        1.0000    0.11360   0.80530   0.31880   Biso      1.000     C          0.12725   
         C2        1.0000    0.00380   0.21860   0.87190   Biso      1.000     C          0.67857   
         C3        1.0000    0.91050   0.31810   0.80390   Biso      1.000     C          -0.378056           
         C4        1.0000    0.92840   0.01790   0.51900   Biso      1.000     C          -0.253076           
         C5        1.0000    0.98400   0.30360   0.31590   Biso      1.000     C          0.113153  
         C6        1.0000    0.88760   0.16170   0.22060   Biso      1.000     C          -0.367742           
         C7        1.0000    0.94290   0.09290   0.58290   Biso      1.000     C          0.219191  
         C8        1.0000    0.99670   0.40600   0.41520   Biso      1.000     C          0.241592  
         C9        1.0000    0.05620   0.46940   0.47620   Biso      1.000     C          -0.244079           
         C10       1.0000    0.57760   0.80020   0.81800   Biso      1.000     C          -0.39291  
         C11       1.0000    0.63950   0.84770   0.89090   Biso      1.000     C          0.651119  
         C12       1.0000    0.40100   0.61550   0.91140   Biso      1.000     C          0.144322  
         C13       1.0000    0.18970   0.54580   0.96060   Biso      1.000     C          0.260375  
         C14       1.0000    0.05970   0.47430   0.97270   Biso      1.000     C          -0.267131           
         C15       1.0000    0.07640   0.90140   0.85440   Biso      1.000     C          0.6959930000000001  
         C16       1.0000    0.99620   0.78140   0.12810   Biso      1.000     C          0.6785680000000001  
         C17       1.0000    0.08950   0.68190   0.19610   Biso      1.000     C          -0.37806100000000004          
         C18       1.0000    0.07160   0.98210   0.48100   Biso      1.000     C          -0.253081           
         C19       1.0000    0.01600   0.69640   0.68410   Biso      1.000     C          0.113153  
         C20       1.0000    0.11240   0.83830   0.77940   Biso      1.000     C          -0.367751           
         C21       1.0000    0.05710   0.90710   0.41710   Biso      1.000     C          0.21919299999999997           
         C22       1.0000    0.00330   0.59400   0.58480   Biso      1.000     C          0.24159299999999997           
         C23       1.0000    0.94380   0.53060   0.52380   Biso      1.000     C          -0.244079           
         C24       1.0000    0.42240   0.19980   0.18200   Biso      1.000     C          -0.392908           
         C25       1.0000    0.36050   0.15230   0.10910   Biso      1.000     C          0.651123  
         C26       1.0000    0.59900   0.38450   0.08860   Biso      1.000     C          0.14432799999999998           
         C27       1.0000    0.81030   0.45420   0.03940   Biso      1.000     C          0.260374  
         C28       1.0000    0.94030   0.52570   0.02730   Biso      1.000     C          -0.267129           
         C29       1.0000    0.88640   0.19470   0.68120   Biso      1.000     C          0.12725799999999998           
         C30       1.0000    0.92360   0.09860   0.14560   Biso      1.000     C          0.695988  
         Eu1       1.0000    0.79662   0.95506   0.00239   Biso      1.000     Eu          1.387761  
         Eu2       1.0000    0.20338   0.04494   0.99761   Biso      1.000     Eu          1.387764  
         H1        1.0000    0.89000   0.59110   0.47340   Biso      1.000     H          0.135074  
         H2        1.0000    0.62750   0.12020   0.67160   Biso      1.000     H          0.35229099999999997           
         H3        1.0000    0.66960   0.04810   0.60590   Biso      1.000     H          0.344199  
         H4        1.0000    0.11000   0.40890   0.52660   Biso      1.000     H          0.135075  
         H5        1.0000    0.12070   0.53150   0.43500   Biso      1.000     H          0.113419  
         H6        1.0000    0.81570   0.22720   0.19730   Biso      1.000     H          0.153753  
         H7        1.0000    0.85190   0.10210   0.28220   Biso      1.000     H          0.15575   
         H8        1.0000    0.26040   0.28240   0.32270   Biso      1.000     H          0.31688   
         H9        1.0000    0.27490   0.34590   0.39450   Biso      1.000     H          0.355461  
         H10       1.0000    0.87330   0.06570   0.46400   Biso      1.000     H          0.13230899999999998           
         H11       1.0000    0.87810   0.94340   0.55610   Biso      1.000     H          0.107823  
         H12       1.0000    0.26400   0.48200   0.80200   Biso      1.000     H          0.301464  
         H13       1.0000    0.33200   0.38600   0.89000   Biso      1.000     H          0.347001  
         H14       1.0000    0.86500   0.36850   0.83990   Biso      1.000     H          0.167447  
         H15       1.0000    0.87930   0.46850   0.56500   Biso      1.000     H          0.113416  
         H16       1.0000    0.48270   0.83660   0.80650   Biso      1.000     H          0.174581  
         H17       1.0000    0.63350   0.83140   0.75620   Biso      1.000     H          0.134445  
         H18       1.0000    0.97000   0.37170   0.75060   Biso      1.000     H          0.151333  
         H19       1.0000    0.07950   0.38730   0.00950   Biso      1.000     H          0.14233900000000002           
         H20       1.0000    0.03040   0.48080   0.90880   Biso      1.000     H          0.130141  
         H21       1.0000    0.33040   0.95190   0.39410   Biso      1.000     H          0.34420100000000003           
         H22       1.0000    0.37250   0.87980   0.32840   Biso      1.000     H          0.352294  
         H23       1.0000    0.36650   0.16860   0.24380   Biso      1.000     H          0.134446  
         H24       1.0000    0.96960   0.51920   0.09120   Biso      1.000     H          0.130141  
         H25       1.0000    0.92050   0.61270   0.99050   Biso      1.000     H          0.14234000000000002           
         H26       1.0000    0.18430   0.77280   0.80270   Biso      1.000     H          0.153754  
         H27       1.0000    0.14810   0.89790   0.71780   Biso      1.000     H          0.155751  
         H28       1.0000    0.51730   0.16340   0.19350   Biso      1.000     H          0.174583  
         H29       1.0000    0.72510   0.65410   0.60550   Biso      1.000     H          0.355457  
         H30       1.0000    0.12670   0.93430   0.53600   Biso      1.000     H          0.13230999999999998           
         H31       1.0000    0.12190   0.05660   0.44390   Biso      1.000     H          0.107821  
         H32       1.0000    0.73600   0.51800   0.19800   Biso      1.000     H          0.301466  
         H33       1.0000    0.66800   0.61400   0.11000   Biso      1.000     H          0.347002  
         H34       1.0000    0.03000   0.62830   0.24940   Biso      1.000     H          0.151332  
         H35       1.0000    0.73960   0.71760   0.67730   Biso      1.000     H          0.316877  
         H36       1.0000    0.13500   0.63150   0.16010   Biso      1.000     H          0.167443  
         N1        1.0000    0.69170   0.09420   0.63750   Biso      1.000     N          -0.602336           
         N2        1.0000    0.69100   0.46800   0.09430   Biso      1.000     N          0.05374299999999999           
         N3        1.0000    0.79310   0.37000   0.00120   Biso      1.000     N          -0.23502699999999999          
         N4        1.0000    0.92450   0.65360   0.63720   Biso      1.000     N          0.149083  
         N5        1.0000    0.97750   0.79680   0.33840   Biso      1.000     N          -0.234694           
         N6        1.0000    0.65700   0.32590   0.03250   Biso      1.000     N          -0.25295100000000004          
         N7        1.0000    0.77730   0.67830   0.64040   Biso      1.000     N          -0.655571           
         N8        1.0000    0.66300   0.54650   0.15010   Biso      1.000     N          -0.589331           
         N9        1.0000    0.94130   0.86370   0.40210   Biso      1.000     N          -0.266452           
         N10       1.0000    0.13600   0.59940   0.59710   Biso      1.000     N          -0.275412           
         N11       1.0000    0.85450   0.33350   0.33790   Biso      1.000     N          -0.297247           
         N12       1.0000    0.14550   0.66650   0.66210   Biso      1.000     N          -0.29725  
         N13       1.0000    0.30830   0.90580   0.36250   Biso      1.000     N          -0.602344           
         N14       1.0000    0.16840   0.87300   0.36650   Biso      1.000     N          0.161745  
         N15       1.0000    0.86400   0.40060   0.40290   Biso      1.000     N          -0.275416           
         N16       1.0000    0.30900   0.53200   0.90570   Biso      1.000     N          0.053738  
         N17       1.0000    0.22270   0.32170   0.35960   Biso      1.000     N          -0.65558  
         N18       1.0000    0.33700   0.45350   0.84990   Biso      1.000     N          -0.589331           
         N19       1.0000    0.83160   0.12700   0.63350   Biso      1.000     N          0.161749  
         N20       1.0000    0.34300   0.67410   0.96750   Biso      1.000     N          -0.25296  
         N21       1.0000    0.02250   0.20320   0.66160   Biso      1.000     N          -0.23469099999999998          
         N22       1.0000    0.07550   0.34640   0.36280   Biso      1.000     N          0.149089  
         N23       1.0000    0.20690   0.63000   0.99880   Biso      1.000     N          -0.235025           
         N24       1.0000    0.05870   0.13630   0.59790   Biso      1.000     N          -0.266457           
         O1        1.0000    0.68590   0.77750   0.96910   Biso      1.000     O          -0.5788409999999999           
         O2        1.0000    0.64410   0.96520   0.86500   Biso      1.000     O          -0.6075119999999999           
         O3        1.0000    0.17350   0.95630   0.87330   Biso      1.000     O          -0.609069           
         O4        1.0000    0.04670   0.88280   0.07460   Biso      1.000     O          -0.653776           
         O5        1.0000    0.87040   0.75710   0.12650   Biso      1.000     O          -0.553344           
         O6        1.0000    0.05020   0.10440   0.11120   Biso      1.000     O          -0.5886680000000001           
         O7        1.0000    0.94980   0.89560   0.88880   Biso      1.000     O          -0.588675           
         O8        1.0000    0.12960   0.24290   0.87350   Biso      1.000     O          -0.553347           
         O9        1.0000    0.35590   0.03480   0.13500   Biso      1.000     O          -0.607516           
         O10       1.0000    0.82650   0.04370   0.12670   Biso      1.000     O          -0.609066           
         O11       1.0000    0.31410   0.22250   0.03090   Biso      1.000     O          -0.578842           
         O12       1.0000    0.95330   0.11720   0.92540   Biso      1.000     O          -0.653777           
         S1        1.0000    0.22345   0.73932   0.24717   Biso      1.000     S          0.121098  
         S2        1.0000    0.43233   0.36577   0.14980   Biso      1.000     S          0.11393099999999999           
         S3        1.0000    0.95187   0.77444   0.76241   Biso      1.000     S          0.06862   
         S4        1.0000    0.56767   0.63423   0.85020   Biso      1.000     S          0.11393699999999998           
         S5        1.0000    0.04813   0.22556   0.23759   Biso      1.000     S          0.068608  
         S6        1.0000    0.77655   0.26068   0.75283   Biso      1.000     S          0.121077 