
##########################################################################
#               Crystallographic Information Format file
#               Produced by PyCifRW module
#
#  This is a CIF file.  CIF has been adopted by the International
#  Union of Crystallography as the standard for data archiving and
#  transmission.
#
#  For information on this file format, follow the CIF links at
#  http://www.iucr.org
##########################################################################

data_image0

_cell_length_a                          7.4959
_cell_length_b                          10.6092
_cell_length_c                          10.8657
_cell_angle_alpha                       119.222
_cell_angle_beta                        110.178
_cell_angle_gamma                       90
_symmetry_space_group_name_H-M          'P 1'
_symmetry_int_tables_number             1
loop_
  _symmetry_equiv_pos_as_xyz
         'x, y, z' 
loop_
  _atom_site_label
  _atom_site_occupancy
  _atom_site_fract_x
  _atom_site_fract_y
  _atom_site_fract_z
  _atom_site_thermal_displace_type
  _atom_site_B_iso_or_equiv
  _atom_site_type_symbol
  _atom_site_charge
         Ba1       1.0000    0.33312   0.61751   0.50000   Biso      1.000     Ba          1.529292  
         Ba2       1.0000    0.83312   0.38249   0.50000   Biso      1.000     Ba          1.5291709999999998  
         C1        1.0000    0.30319   0.77999   0.98758   Biso      1.000     C          -0.082919           
         C2        1.0000    0.29751   0.87481   0.12902   Biso      1.000     C          -0.091561           
         C3        1.0000    0.26775   0.82045   0.21290   Biso      1.000     C          -0.063319           
         C4        1.0000    0.29742   0.52682   0.78204   Biso      1.000     C          0.59826   
         C5        1.0000    0.85211   0.19641   0.06422   Biso      1.000     C          -0.05466  
         C6        1.0000    0.81561   0.29241   0.01242   Biso      1.000     C          -0.085151           
         C7        1.0000    0.66849   0.24579   0.87098   Biso      1.000     C          -0.08819  
         C8        1.0000    0.55485   0.10755   0.78710   Biso      1.000     C          -0.063651           
         C9        1.0000    0.01538   0.24478   0.21796   Biso      1.000     C          0.597762  
         C10       1.0000    0.75843   0.94373   0.02366   Biso      1.000     C          0.069163  
         C11       1.0000    0.78789   0.80359   0.93578   Biso      1.000     C          -0.05634  
         C12       1.0000    0.80319   0.70759   0.98758   Biso      1.000     C          -0.08187699999999999          
         C13       1.0000    0.79751   0.75421   0.12902   Biso      1.000     C          -0.091981           
         C14       1.0000    0.76775   0.89245   0.21290   Biso      1.000     C          -0.063564           
         C15       1.0000    0.79742   0.75522   0.78204   Biso      1.000     C          0.598961  
         C16       1.0000    0.28789   0.63219   0.93578   Biso      1.000     C          -0.055590999999999995         
         C17       1.0000    0.25843   0.57993   0.02366   Biso      1.000     C          0.068449  
         C18       1.0000    0.73477   0.05627   0.97634   Biso      1.000     C          0.066941  
         C19       1.0000    0.05485   0.17955   0.78710   Biso      1.000     C          -0.060471000000000004         
         C20       1.0000    0.16849   0.12519   0.87098   Biso      1.000     C          -0.091536           
         C21       1.0000    0.31561   0.22001   0.01242   Biso      1.000     C          -0.083187           
         C22       1.0000    0.35211   0.36781   0.06422   Biso      1.000     C          -0.055385000000000004         
         C23       1.0000    0.23477   0.42007   0.97634   Biso      1.000     C          0.067801  
         C24       1.0000    0.51538   0.47318   0.21796   Biso      1.000     C          0.597673  
         H1        1.0000    0.38910   0.18400   0.07200   Biso      1.000     H          0.13000499999999998           
         H2        1.0000    0.95650   0.11520   0.69180   Biso      1.000     H          0.123947  
         H3        1.0000    0.31710   0.81600   0.92800   Biso      1.000     H          0.13003499999999998           
         H4        1.0000    0.31410   0.97580   0.16720   Biso      1.000     H          0.138695  
         H5        1.0000    0.26470   0.88480   0.30820   Biso      1.000     H          0.125862  
         H6        1.0000    0.14690   0.02420   0.83280   Biso      1.000     H          0.138907  
         H7        1.0000    0.64690   0.30860   0.83280   Biso      1.000     H          0.138379  
         H8        1.0000    0.45650   0.07660   0.69180   Biso      1.000     H          0.124161  
         H9        1.0000    0.81710   0.61200   0.92800   Biso      1.000     H          0.129328  
         H10       1.0000    0.81410   0.69140   0.16720   Biso      1.000     H          0.13930399999999998           
         H11       1.0000    0.76470   0.92340   0.30820   Biso      1.000     H          0.125497  
         H12       1.0000    0.88910   0.38800   0.07200   Biso      1.000     H          0.13032   
         N1        1.0000    0.08403   0.32613   0.84146   Biso      1.000     N          0.318785  
         N2        1.0000    0.24257   0.67387   0.15854   Biso      1.000     N          0.319486  
         N3        1.0000    0.58403   0.01533   0.84146   Biso      1.000     N          0.321155  
         N4        1.0000    0.74257   0.98467   0.15854   Biso      1.000     N          0.318956  
         O1        1.0000    0.88342   0.84403   0.76784   Biso      1.000     O          -0.562427           
         O2        1.0000    0.46191   0.88641   0.76382   Biso      1.000     O          -0.57886  
         O3        1.0000    0.03595   0.37689   0.32150   Biso      1.000     O          -0.7110390000000001           
         O4        1.0000    0.11558   0.15597   0.23216   Biso      1.000     O          -0.5621510000000001           
         O5        1.0000    0.19809   0.62259   0.23618   Biso      1.000     O          -0.578298           
         O6        1.0000    0.61558   0.57619   0.23216   Biso      1.000     O          -0.562527           
         O7        1.0000    0.38342   0.42381   0.76784   Biso      1.000     O          -0.562796           
         O8        1.0000    0.96191   0.37741   0.76382   Biso      1.000     O          -0.5781390000000001           
         O9        1.0000    0.53595   0.44461   0.32150   Biso      1.000     O          -0.710666           
         O10       1.0000    0.71445   0.62311   0.67850   Biso      1.000     O          -0.711488           
         O11       1.0000    0.21445   0.55539   0.67850   Biso      1.000     O          -0.710843           
         O12       1.0000    0.69809   0.11359   0.23618   Biso      1.000     O          -0.577678 