
##########################################################################
#               Crystallographic Information Format file
#               Produced by PyCifRW module
#
#  This is a CIF file.  CIF has been adopted by the International
#  Union of Crystallography as the standard for data archiving and
#  transmission.
#
#  For information on this file format, follow the CIF links at
#  http://www.iucr.org
##########################################################################

data_image0

_cell_length_a                          4.88
_cell_length_b                          13.11
_cell_length_c                          13.2899
_cell_angle_alpha                       90
_cell_angle_beta                        100.579
_cell_angle_gamma                       90
_symmetry_space_group_name_H-M          'P 1'
_symmetry_int_tables_number             1
loop_
  _symmetry_equiv_pos_as_xyz
         'x, y, z' 
loop_
  _atom_site_label
  _atom_site_occupancy
  _atom_site_fract_x
  _atom_site_fract_y
  _atom_site_fract_z
  _atom_site_thermal_displace_type
  _atom_site_B_iso_or_equiv
  _atom_site_type_symbol
  _atom_site_charge
         C1        1.0000    0.78210   0.09480   0.68320   Biso      1.000     C          0.576659  
         C2        1.0000    0.55520   0.90110   0.47650   Biso      1.000     C          -0.007689           
         C3        1.0000    0.36430   0.84190   0.52060   Biso      1.000     C          -0.161809           
         C4        1.0000    0.63270   0.00700   0.62220   Biso      1.000     C          -0.01103  
         C5        1.0000    0.44430   0.95320   0.66490   Biso      1.000     C          -0.163068           
         C6        1.0000    0.30990   0.86930   0.61330   Biso      1.000     C          0.141457  
         C7        1.0000    0.10320   0.80070   0.66560   Biso      1.000     C          -0.318992           
         C8        1.0000    0.27390   0.74630   0.74890   Biso      1.000     C          0.162563  
         C9        1.0000    0.45800   0.67000   0.72320   Biso      1.000     C          -0.169388           
         C10       1.0000    0.61350   0.60840   0.79790   Biso      1.000     C          -0.028963           
         C11       1.0000    0.58450   0.61850   0.89930   Biso      1.000     C          -0.104873           
         C12       1.0000    0.39740   0.68680   0.92630   Biso      1.000     C          -0.006206           
         C13       1.0000    0.23560   0.74870   0.85080   Biso      1.000     C          -0.151878           
         C14       1.0000    0.80200   0.53550   0.76660   Biso      1.000     C          0.610337  
         C15       1.0000    0.38090   0.69940   0.03530   Biso      1.000     C          0.585933  
         C16       1.0000    0.76440   0.24870   0.14920   Biso      1.000     C          -0.151878           
         C17       1.0000    0.60260   0.18680   0.07370   Biso      1.000     C          -0.006209           
         C18       1.0000    0.41550   0.11850   0.10070   Biso      1.000     C          -0.104871           
         C19       1.0000    0.61910   0.19940   0.96470   Biso      1.000     C          0.585933  
         C20       1.0000    0.19800   0.03550   0.23340   Biso      1.000     C          0.610337  
         C21       1.0000    0.21790   0.59480   0.31680   Biso      1.000     C          0.576659  
         C22       1.0000    0.38810   0.36440   0.62260   Biso      1.000     C          0.594033  
         C23       1.0000    0.30740   0.48110   0.47390   Biso      1.000     C          -0.128139           
         C24       1.0000    0.44480   0.40110   0.52350   Biso      1.000     C          -0.007672           
         C25       1.0000    0.69260   0.98110   0.52610   Biso      1.000     C          -0.12812  
         C26       1.0000    0.63570   0.34190   0.47940   Biso      1.000     C          -0.161811           
         C27       1.0000    0.55570   0.45320   0.33510   Biso      1.000     C          -0.163074           
         C28       1.0000    0.69010   0.36930   0.38670   Biso      1.000     C          0.141458  
         C29       1.0000    0.89680   0.30070   0.33440   Biso      1.000     C          -0.318992           
         C30       1.0000    0.72610   0.24630   0.25110   Biso      1.000     C          0.162563  
         C31       1.0000    0.54200   0.17000   0.27680   Biso      1.000     C          -0.169388           
         C32       1.0000    0.38650   0.10840   0.20210   Biso      1.000     C          -0.028962           
         C33       1.0000    0.36730   0.50700   0.37780   Biso      1.000     C          -0.011022           
         C34       1.0000    0.61190   0.86440   0.37740   Biso      1.000     C          0.594034  
         Ce1       1.0000    0.97778   0.75880   0.21230   Biso      1.000     Ce          2.018617  
         Ce2       1.0000    0.02222   0.25880   0.78770   Biso      1.000     Ce          2.018617  
         H1        1.0000    0.17760   0.51780   0.50240   Biso      1.000     H          0.128927  
         H2        1.0000    0.09950   0.79430   0.86970   Biso      1.000     H          0.135502  
         H3        1.0000    0.69260   0.57880   0.94940   Biso      1.000     H          0.136395  
         H4        1.0000    0.47430   0.66130   0.65510   Biso      1.000     H          0.128952  
         H5        1.0000    0.96900   0.84340   0.69130   Biso      1.000     H          0.127509  
         H6        1.0000    0.00280   0.75320   0.61630   Biso      1.000     H          0.151383  
         H7        1.0000    0.40550   0.97240   0.72820   Biso      1.000     H          0.139245  
         H8        1.0000    0.27800   0.78530   0.48640   Biso      1.000     H          0.134709  
         H9        1.0000    0.93870   0.49630   0.66060   Biso      1.000     H          0.424142  
         H10       1.0000    0.06130   0.99630   0.33940   Biso      1.000     H          0.424142  
         H11       1.0000    0.90050   0.29430   0.13030   Biso      1.000     H          0.135502  
         H12       1.0000    0.30740   0.07880   0.05060   Biso      1.000     H          0.136395  
         H13       1.0000    0.52570   0.16130   0.34490   Biso      1.000     H          0.128952  
         H14       1.0000    0.03100   0.34340   0.30870   Biso      1.000     H          0.127509  
         H15       1.0000    0.99720   0.25320   0.38370   Biso      1.000     H          0.151383  
         H16       1.0000    0.59450   0.47240   0.27180   Biso      1.000     H          0.139246  
         H17       1.0000    0.72200   0.28530   0.51360   Biso      1.000     H          0.134709  
         H18       1.0000    0.82240   0.01780   0.49760   Biso      1.000     H          0.128926  
         O1        1.0000    0.05560   0.64850   0.35780   Biso      1.000     O          -0.612396           
         O2        1.0000    0.26030   0.61480   0.22970   Biso      1.000     O          -0.597717           
         O3        1.0000    0.08700   0.96060   0.17600   Biso      1.000     O          -0.614685           
         O4        1.0000    0.15210   0.04520   0.32530   Biso      1.000     O          -0.492177           
         O5        1.0000    0.83910   0.25390   0.94530   Biso      1.000     O          -0.632337           
         O6        1.0000    0.39730   0.16870   0.89160   Biso      1.000     O          -0.656134           
         O7        1.0000    0.86950   0.88700   0.35330   Biso      1.000     O          -0.692894           
         O8        1.0000    0.91300   0.46060   0.82400   Biso      1.000     O          -0.614685           
         O9        1.0000    0.94440   0.14850   0.64220   Biso      1.000     O          -0.612396           
         O10       1.0000    0.73970   0.11480   0.77030   Biso      1.000     O          -0.597717           
         O11       1.0000    0.84790   0.54520   0.67470   Biso      1.000     O          -0.492177           
         O12       1.0000    0.16090   0.75390   0.05470   Biso      1.000     O          -0.632337           
         O13       1.0000    0.60270   0.66870   0.10840   Biso      1.000     O          -0.656134           
         O14       1.0000    0.55660   0.30810   0.67950   Biso      1.000     O          -0.646005           
         O15       1.0000    0.44340   0.80810   0.32050   Biso      1.000     O          -0.646005           
         O16       1.0000    0.13050   0.38700   0.64670   Biso      1.000     O          -0.692894 