
##########################################################################
#               Crystallographic Information Format file
#               Produced by PyCifRW module
#
#  This is a CIF file.  CIF has been adopted by the International
#  Union of Crystallography as the standard for data archiving and
#  transmission.
#
#  For information on this file format, follow the CIF links at
#  http://www.iucr.org
##########################################################################

data_image0

_cell_length_a                          4.873
_cell_length_b                          13.133
_cell_length_c                          13.2997
_cell_angle_alpha                       90
_cell_angle_beta                        100.552
_cell_angle_gamma                       90
_symmetry_space_group_name_H-M          'P 1'
_symmetry_int_tables_number             1
loop_
  _symmetry_equiv_pos_as_xyz
         'x, y, z' 
loop_
  _atom_site_label
  _atom_site_occupancy
  _atom_site_fract_x
  _atom_site_fract_y
  _atom_site_fract_z
  _atom_site_thermal_displace_type
  _atom_site_B_iso_or_equiv
  _atom_site_type_symbol
  _atom_site_charge
         C1        1.0000    0.73700   0.00200   0.62610   Biso      1.000     C          0.572126  
         C2        1.0000    0.56670   0.03550   0.52500   Biso      1.000     C          -0.023309           
         C3        1.0000    0.68470   0.12190   0.47320   Biso      1.000     C          -0.151799           
         C4        1.0000    0.51730   0.14510   0.37550   Biso      1.000     C          -0.012083           
         C5        1.0000    0.28510   0.08620   0.33880   Biso      1.000     C          -0.172145           
         C6        1.0000    0.18410   0.01070   0.38510   Biso      1.000     C          0.166105  
         C7        1.0000    0.94660   0.94240   0.33260   Biso      1.000     C          -0.31674  
         C8        1.0000    0.02700   0.90700   0.25170   Biso      1.000     C          0.16237200000000002           
         C9        1.0000    0.24490   0.80850   0.27780   Biso      1.000     C          -0.16072  
         C10       1.0000    0.33140   0.74330   0.20280   Biso      1.000     C          -0.063099           
         C11       1.0000    0.19600   0.75450   0.10280   Biso      1.000     C          -0.09249199999999999          
         C12       1.0000    0.98570   0.82520   0.07540   Biso      1.000     C          -0.023518999999999998         
         C13       1.0000    0.87830   0.89000   0.14940   Biso      1.000     C          -0.161359           
         C14       1.0000    0.59960   0.23140   0.31590   Biso      1.000     C          0.570033  
         C15       1.0000    0.83680   0.84290   0.96520   Biso      1.000     C          0.6067600000000001  
         C16       1.0000    0.12170   0.39000   0.85060   Biso      1.000     C          -0.161359           
         C17       1.0000    0.01430   0.32520   0.92460   Biso      1.000     C          -0.02352  
         C18       1.0000    0.80400   0.25450   0.89720   Biso      1.000     C          -0.09249500000000001          
         C19       1.0000    0.16320   0.34290   0.03480   Biso      1.000     C          0.6067600000000001  
         C20       1.0000    0.40040   0.73140   0.68410   Biso      1.000     C          0.570033  
         C21       1.0000    0.26300   0.50200   0.37390   Biso      1.000     C          0.572121  
         C22       1.0000    0.46560   0.17340   0.76900   Biso      1.000     C          0.630328  
         C23       1.0000    0.65740   0.48850   0.52160   Biso      1.000     C          -0.139207           
         C24       1.0000    0.43330   0.53550   0.47500   Biso      1.000     C          -0.023259000000000002         
         C25       1.0000    0.34260   0.98850   0.47840   Biso      1.000     C          -0.13915  
         C26       1.0000    0.31530   0.62190   0.52680   Biso      1.000     C          -0.151804           
         C27       1.0000    0.71490   0.58620   0.66120   Biso      1.000     C          -0.172146           
         C28       1.0000    0.81590   0.51070   0.61490   Biso      1.000     C          0.16611700000000001           
         C29       1.0000    0.05340   0.44240   0.66740   Biso      1.000     C          -0.31674  
         C30       1.0000    0.97300   0.40700   0.74830   Biso      1.000     C          0.16237200000000002           
         C31       1.0000    0.75510   0.30850   0.72220   Biso      1.000     C          -0.160722           
         C32       1.0000    0.66860   0.24330   0.79720   Biso      1.000     C          -0.063082           
         C33       1.0000    0.48270   0.64510   0.62450   Biso      1.000     C          -0.012081999999999999         
         C34       1.0000    0.53440   0.67340   0.23100   Biso      1.000     C          0.630342  
         Ce1       1.0000    0.73576   0.39626   0.21198   Biso      1.000     Ce          2.0194970000000003  
         Ce2       1.0000    0.26424   0.89626   0.78802   Biso      1.000     Ce          2.0194970000000003  
         H1        1.0000    0.44280   0.15660   0.64570   Biso      1.000     H          0.39478   
         H2        1.0000    0.24770   0.71340   0.05250   Biso      1.000     H          0.13402999999999998           
         H3        1.0000    0.31570   0.79480   0.34620   Biso      1.000     H          0.117899  
         H4        1.0000    0.91400   0.88720   0.37750   Biso      1.000     H          0.168453  
         H5        1.0000    0.77530   0.98120   0.31390   Biso      1.000     H          0.136054  
         H6        1.0000    0.18970   0.10200   0.27350   Biso      1.000     H          0.123178  
         H7        1.0000    0.84750   0.15640   0.50100   Biso      1.000     H          0.14486400000000002           
         H8        1.0000    0.28400   0.93330   0.51280   Biso      1.000     H          0.118124  
         H9        1.0000    0.70620   0.92150   0.12910   Biso      1.000     H          0.135658  
         H10       1.0000    0.29380   0.42150   0.87090   Biso      1.000     H          0.135658  
         H11       1.0000    0.75230   0.21340   0.94750   Biso      1.000     H          0.13403099999999998           
         H12       1.0000    0.68430   0.29480   0.65380   Biso      1.000     H          0.117899  
         H13       1.0000    0.08600   0.38720   0.62250   Biso      1.000     H          0.168453  
         H14       1.0000    0.22470   0.48120   0.68610   Biso      1.000     H          0.136054  
         H15       1.0000    0.81030   0.60200   0.72650   Biso      1.000     H          0.123178  
         H16       1.0000    0.15250   0.65640   0.49900   Biso      1.000     H          0.14486400000000002           
         H17       1.0000    0.71600   0.43330   0.48720   Biso      1.000     H          0.118128  
         H18       1.0000    0.55720   0.65660   0.35430   Biso      1.000     H          0.394779  
         O1        1.0000    0.37250   0.44900   0.31930   Biso      1.000     O          -0.641001           
         O2        1.0000    0.52450   0.75280   0.77220   Biso      1.000     O          -0.576515           
         O3        1.0000    0.41310   0.09890   0.82230   Biso      1.000     O          -0.561947           
         O4        1.0000    0.32560   0.18310   0.67810   Biso      1.000     O          -0.505538           
         O5        1.0000    0.38950   0.39280   0.05410   Biso      1.000     O          -0.613592           
         O6        1.0000    0.18150   0.78700   0.64490   Biso      1.000     O          -0.636633           
         O7        1.0000    0.01500   0.02550   0.64800   Biso      1.000     O          -0.6612819999999999           
         O8        1.0000    0.58690   0.59890   0.17770   Biso      1.000     O          -0.561948           
         O9        1.0000    0.62750   0.94900   0.68070   Biso      1.000     O          -0.6410020000000001           
         O10       1.0000    0.47550   0.25280   0.22780   Biso      1.000     O          -0.576515           
         O11       1.0000    0.67440   0.68310   0.32190   Biso      1.000     O          -0.50554  
         O12       1.0000    0.61050   0.89280   0.94590   Biso      1.000     O          -0.613592           
         O13       1.0000    0.81850   0.28700   0.35510   Biso      1.000     O          -0.636633           
         O14       1.0000    0.02500   0.31210   0.10870   Biso      1.000     O          -0.687349           
         O15       1.0000    0.97500   0.81210   0.89130   Biso      1.000     O          -0.687349           
         O16       1.0000    0.98500   0.52550   0.35200   Biso      1.000     O          -0.661281 