
##########################################################################
#               Crystallographic Information Format file
#               Produced by PyCifRW module
#
#  This is a CIF file.  CIF has been adopted by the International
#  Union of Crystallography as the standard for data archiving and
#  transmission.
#
#  For information on this file format, follow the CIF links at
#  http://www.iucr.org
##########################################################################

data_image0

_cell_length_a                          7.7113
_cell_length_b                          23.1896
_cell_length_c                          23.1896
_cell_angle_alpha                       61.212
_cell_angle_beta                        83.636
_cell_angle_gamma                       96.364
_symmetry_space_group_name_H-M          'P 1'
_symmetry_int_tables_number             1
loop_
  _symmetry_equiv_pos_as_xyz
         'x, y, z' 
loop_
  _atom_site_label
  _atom_site_occupancy
  _atom_site_fract_x
  _atom_site_fract_y
  _atom_site_fract_z
  _atom_site_thermal_displace_type
  _atom_site_B_iso_or_equiv
  _atom_site_type_symbol
  _atom_site_charge
         C1        1.0000    0.20535   0.88355   0.23160   Biso      1.000     C          0.690892  
         C2        1.0000    0.56625   0.53310   0.32055   Biso      1.000     C          0.595371  
         C3        1.0000    0.92356   0.68234   0.14216   Biso      1.000     C          -0.129095           
         C4        1.0000    0.99180   0.63746   0.19556   Biso      1.000     C          -0.09721  
         C5        1.0000    0.88114   0.58818   0.25446   Biso      1.000     C          -0.007268           
         C6        1.0000    0.69873   0.58447   0.25858   Biso      1.000     C          -0.049244           
         C7        1.0000    0.63247   0.62836   0.20335   Biso      1.000     C          -0.160743           
         C8        1.0000    0.74245   0.67867   0.14482   Biso      1.000     C          0.089154  
         C9        1.0000    0.65422   0.72674   0.08858   Biso      1.000     C          -0.300554           
         C10       1.0000    0.44161   0.52372   0.07309   Biso      1.000     C          0.597454  
         C11       1.0000    0.25872   0.68236   0.02170   Biso      1.000     C          -0.074969           
         C12       1.0000    0.37702   0.71637   0.04071   Biso      1.000     C          -0.144986           
         C13       1.0000    0.97074   0.54232   0.30940   Biso      1.000     C          0.608966  
         C14       1.0000    0.51796   0.68931   0.06843   Biso      1.000     C          0.105234  
         C15       1.0000    0.42074   0.59275   0.05713   Biso      1.000     C          -0.009934           
         C16       1.0000    0.27665   0.62007   0.03072   Biso      1.000     C          -0.036401           
         C17       1.0000    0.14197   0.58643   0.00872   Biso      1.000     C          0.61188   
         C18       1.0000    0.01350   0.19944   0.77624   Biso      1.000     C          0.691993  
         C19       1.0000    0.79465   0.11645   0.76840   Biso      1.000     C          0.690892  
         C20       1.0000    0.42842   0.14828   0.54232   Biso      1.000     C          0.609443  
         C21       1.0000    0.03315   0.14635   0.53310   Biso      1.000     C          0.595581  
         C22       1.0000    0.24122   0.17550   0.68234   Biso      1.000     C          -0.126196           
         C23       1.0000    0.35434   0.16698   0.63746   Biso      1.000     C          -0.099148           
         C24       1.0000    0.29296   0.15736   0.58818   Biso      1.000     C          -0.006169           
         C25       1.0000    0.11426   0.15695   0.58447   Biso      1.000     C          -0.050442           
         C26       1.0000    0.54168   0.62761   0.07477   Biso      1.000     C          -0.14609  
         C27       1.0000    0.56305   0.76840   0.11515   Biso      1.000     C          0.690512  
         C28       1.0000    0.78974   0.77624   0.02432   Biso      1.000     C          0.69385   
         C29       1.0000    0.15069   0.00872   0.40485   Biso      1.000     C          0.613073  
         C30       1.0000    0.42364   0.70406   0.31764   Biso      1.000     C          -0.074878           
         C31       1.0000    0.33935   0.75708   0.28363   Biso      1.000     C          -0.145689           
         C32       1.0000    0.17135   0.75774   0.31069   Biso      1.000     C          0.104301  
         C33       1.0000    0.08593   0.70238   0.37239   Biso      1.000     C          -0.143542           
         C34       1.0000    0.17201   0.64988   0.40725   Biso      1.000     C          -0.010311           
         C35       1.0000    0.34342   0.65079   0.37993   Biso      1.000     C          -0.036022           
         C36       1.0000    0.44446   0.59515   0.41357   Biso      1.000     C          0.611947  
         C37       1.0000    0.81406   0.02432   0.19944   Biso      1.000     C          0.690983  
         C38       1.0000    0.67820   0.11515   0.11645   Biso      1.000     C          0.689905  
         C39       1.0000    0.28014   0.30940   0.14828   Biso      1.000     C          0.610508  
         C40       1.0000    0.88680   0.32055   0.14635   Biso      1.000     C          0.594951  
         C41       1.0000    0.06572   0.14216   0.17550   Biso      1.000     C          -0.129899           
         C42       1.0000    0.18736   0.19556   0.16698   Biso      1.000     C          -0.098558           
         C43       1.0000    0.13560   0.25446   0.15736   Biso      1.000     C          -0.006367           
         C44       1.0000    0.95731   0.25858   0.15695   Biso      1.000     C          -0.049646           
         C45       1.0000    0.83582   0.20335   0.16829   Biso      1.000     C          -0.160849           
         C46       1.0000    0.88727   0.14482   0.17651   Biso      1.000     C          0.089311  
         C47       1.0000    0.74280   0.08858   0.18468   Biso      1.000     C          -0.30235  
         C48       1.0000    0.51470   0.07309   0.40319   Biso      1.000     C          0.59693   
         C49       1.0000    0.28042   0.02170   0.29594   Biso      1.000     C          -0.077615           
         C50       1.0000    0.41773   0.04071   0.24292   Biso      1.000     C          -0.144046           
         C51       1.0000    0.58639   0.06843   0.24226   Biso      1.000     C          0.105515  
         C52       1.0000    0.61645   0.07477   0.29762   Biso      1.000     C          -0.145982           
         C53       1.0000    0.47787   0.05713   0.35012   Biso      1.000     C          -0.00992  
         C54       1.0000    0.30737   0.03072   0.34921   Biso      1.000     C          -0.03609  
         C55       1.0000    0.00411   0.16829   0.62836   Biso      1.000     C          -0.160998           
         C56       1.0000    0.06378   0.17651   0.67867   Biso      1.000     C          0.088422  
         C57       1.0000    0.92748   0.18468   0.72674   Biso      1.000     C          -0.300402           
         C58       1.0000    0.91789   0.40319   0.52372   Biso      1.000     C          0.595768  
         C59       1.0000    0.00820   0.36254   0.80444   Biso      1.000     C          -0.097213           
         C60       1.0000    0.07644   0.31766   0.85784   Biso      1.000     C          -0.129092           
         C61       1.0000    0.43375   0.46690   0.67945   Biso      1.000     C          0.595371  
         C62       1.0000    0.02926   0.45768   0.69060   Biso      1.000     C          0.608966  
         C63       1.0000    0.43695   0.23160   0.88485   Biso      1.000     C          0.690512  
         C64       1.0000    0.21026   0.22376   0.97568   Biso      1.000     C          0.69385   
         C65       1.0000    0.84931   0.99128   0.59515   Biso      1.000     C          0.613073  
         C66       1.0000    0.69263   0.96928   0.65079   Biso      1.000     C          -0.036093           
         C67       1.0000    0.52213   0.94287   0.64988   Biso      1.000     C          -0.009919           
         C68       1.0000    0.38355   0.92523   0.70238   Biso      1.000     C          -0.145982           
         C69       1.0000    0.41361   0.93157   0.75774   Biso      1.000     C          0.105515  
         C70       1.0000    0.58227   0.95929   0.75708   Biso      1.000     C          -0.144049           
         C71       1.0000    0.71958   0.97830   0.70406   Biso      1.000     C          -0.077611           
         C72       1.0000    0.48530   0.92691   0.59681   Biso      1.000     C          0.59693   
         C73       1.0000    0.25720   0.91142   0.81532   Biso      1.000     C          -0.30235  
         C74       1.0000    0.11273   0.85518   0.82349   Biso      1.000     C          0.089307  
         C75       1.0000    0.16418   0.79665   0.83171   Biso      1.000     C          -0.160848           
         C76       1.0000    0.04269   0.74142   0.84305   Biso      1.000     C          -0.049646           
         C77       1.0000    0.86440   0.74554   0.84264   Biso      1.000     C          -0.006368           
         C78       1.0000    0.81264   0.80444   0.83302   Biso      1.000     C          -0.098558           
         C79       1.0000    0.93428   0.85784   0.82450   Biso      1.000     C          -0.129895           
         C80       1.0000    0.11320   0.67945   0.85365   Biso      1.000     C          0.594951  
         C81       1.0000    0.71986   0.69060   0.85172   Biso      1.000     C          0.610508  
         C82       1.0000    0.32180   0.88485   0.88355   Biso      1.000     C          0.689905  
         C83       1.0000    0.18594   0.97568   0.80056   Biso      1.000     C          0.690983  
         C84       1.0000    0.11886   0.41182   0.74554   Biso      1.000     C          -0.007268           
         C85       1.0000    0.08211   0.59681   0.47628   Biso      1.000     C          0.595767  
         C86       1.0000    0.30127   0.41553   0.74142   Biso      1.000     C          -0.049244           
         C87       1.0000    0.25755   0.32133   0.85518   Biso      1.000     C          0.089152  
         C88       1.0000    0.57636   0.29594   0.68236   Biso      1.000     C          -0.074878           
         C89       1.0000    0.66065   0.24292   0.71637   Biso      1.000     C          -0.145689           
         C90       1.0000    0.82865   0.24226   0.68931   Biso      1.000     C          0.104301  
         C91       1.0000    0.91407   0.29762   0.62761   Biso      1.000     C          -0.143542           
         C92       1.0000    0.82799   0.35012   0.59275   Biso      1.000     C          -0.010311           
         C93       1.0000    0.65658   0.34921   0.62007   Biso      1.000     C          -0.036022           
         C94       1.0000    0.55554   0.40485   0.58643   Biso      1.000     C          0.611947  
         C95       1.0000    0.93622   0.82349   0.32133   Biso      1.000     C          0.088421  
         C96       1.0000    0.99589   0.83171   0.37164   Biso      1.000     C          -0.160998           
         C97       1.0000    0.88574   0.84305   0.41553   Biso      1.000     C          -0.050442           
         C98       1.0000    0.70704   0.84264   0.41182   Biso      1.000     C          -0.006169           
         C99       1.0000    0.64566   0.83302   0.36254   Biso      1.000     C          -0.099148           
         C100      1.0000    0.75878   0.82450   0.31766   Biso      1.000     C          -0.126194           
         C101      1.0000    0.96685   0.85365   0.46690   Biso      1.000     C          0.595581  
         C102      1.0000    0.57158   0.85172   0.45768   Biso      1.000     C          0.609443  
         C103      1.0000    0.98650   0.80056   0.22376   Biso      1.000     C          0.691993  
         C104      1.0000    0.85803   0.41357   0.99128   Biso      1.000     C          0.61188   
         C105      1.0000    0.72335   0.37993   0.96928   Biso      1.000     C          -0.036403           
         C106      1.0000    0.57926   0.40725   0.94287   Biso      1.000     C          -0.009934           
         C107      1.0000    0.45832   0.37239   0.92523   Biso      1.000     C          -0.14609  
         C108      1.0000    0.48204   0.31069   0.93157   Biso      1.000     C          0.105233  
         C109      1.0000    0.62298   0.28363   0.95929   Biso      1.000     C          -0.144987           
         C110      1.0000    0.74128   0.31764   0.97830   Biso      1.000     C          -0.074965           
         C111      1.0000    0.55839   0.47628   0.92691   Biso      1.000     C          0.597454  
         C112      1.0000    0.34578   0.27326   0.91142   Biso      1.000     C          -0.300553           
         C113      1.0000    0.36753   0.37164   0.79665   Biso      1.000     C          -0.160741           
         C114      1.0000    0.07252   0.81532   0.27326   Biso      1.000     C          -0.300402           
         Cd1       1.0000    0.25386   0.47577   0.56294   Biso      1.000     Cd          1.1277    
         Cd2       1.0000    0.81692   0.52212   0.59915   Biso      1.000     Cd          1.059471  
         Cd3       1.0000    0.81680   0.56294   0.96129   Biso      1.000     Cd          1.127382  
         Cd4       1.0000    0.41607   0.59915   0.87873   Biso      1.000     Cd          1.059009  
         Cd5       1.0000    0.77809   0.96129   0.47577   Biso      1.000     Cd          1.128032  
         Cd6       1.0000    0.29480   0.87873   0.52212   Biso      1.000     Cd          1.059316  
         Cd7       1.0000    0.74614   0.52423   0.43706   Biso      1.000     Cd          1.1277    
         Cd8       1.0000    0.18308   0.47788   0.40085   Biso      1.000     Cd          1.059471  
         Cd9       1.0000    0.18320   0.43706   0.03871   Biso      1.000     Cd          1.127382  
         Cd10      1.0000    0.58393   0.40085   0.12127   Biso      1.000     Cd          1.059009  
         Cd11      1.0000    0.22191   0.03871   0.52423   Biso      1.000     Cd          1.128032  
         Cd12      1.0000    0.70520   0.12127   0.47788   Biso      1.000     Cd          1.059316  
         F1        1.0000    0.71305   0.81504   0.97429   Biso      1.000     F          -0.201785           
         F2        1.0000    0.90406   0.81654   0.03426   Biso      1.000     F          -0.197243           
         F3        1.0000    0.41076   0.73212   0.15804   Biso      1.000     F          -0.188862           
         F4        1.0000    0.52146   0.82380   0.06702   Biso      1.000     F          -0.206489           
         F5        1.0000    0.66505   0.78784   0.14719   Biso      1.000     F          -0.200097           
         F6        1.0000    0.11403   0.99722   0.74563   Biso      1.000     F          -0.187186           
         F7        1.0000    0.89801   0.21067   0.81504   Biso      1.000     F          -0.201271           
         F8        1.0000    0.08752   0.14920   0.81654   Biso      1.000     F          -0.196748           
         F9        1.0000    0.67864   0.10984   0.73212   Biso      1.000     F          -0.188767           
         F10       1.0000    0.69766   0.10918   0.82380   Biso      1.000     F          -0.206342           
         F11       1.0000    0.88319   0.74285   0.00278   Biso      1.000     F          -0.194948           
         F12       1.0000    0.14034   0.25437   0.74285   Biso      1.000     F          -0.193933           
         F13       1.0000    0.87721   0.06497   0.78784   Biso      1.000     F          -0.200745           
         F14       1.0000    0.81224   0.14719   0.06497   Biso      1.000     F          -0.199915           
         F15       1.0000    0.56880   0.15804   0.10984   Biso      1.000     F          -0.188437           
         F16       1.0000    0.06168   0.96574   0.85080   Biso      1.000     F          -0.197352           
         F17       1.0000    0.43120   0.84196   0.89016   Biso      1.000     F          -0.188437           
         F18       1.0000    0.41152   0.93298   0.89082   Biso      1.000     F          -0.206132           
         F19       1.0000    0.18776   0.85281   0.93503   Biso      1.000     F          -0.199915           
         F20       1.0000    0.11681   0.25715   0.99722   Biso      1.000     F          -0.194948           
         F21       1.0000    0.28695   0.18496   0.02571   Biso      1.000     F          -0.201785           
         F22       1.0000    0.31266   0.02571   0.78933   Biso      1.000     F          -0.202253           
         F23       1.0000    0.09594   0.18346   0.96574   Biso      1.000     F          -0.197243           
         F24       1.0000    0.58924   0.26788   0.84196   Biso      1.000     F          -0.188862           
         F25       1.0000    0.58848   0.06702   0.10918   Biso      1.000     F          -0.206132           
         F26       1.0000    0.47854   0.17620   0.93298   Biso      1.000     F          -0.206489           
         F27       1.0000    0.85966   0.74563   0.25715   Biso      1.000     F          -0.193933           
         F28       1.0000    0.10199   0.78933   0.18496   Biso      1.000     F          -0.201271           
         F29       1.0000    0.91248   0.85080   0.18346   Biso      1.000     F          -0.196748           
         F30       1.0000    0.32136   0.89016   0.26788   Biso      1.000     F          -0.188767           
         F31       1.0000    0.30234   0.89082   0.17620   Biso      1.000     F          -0.206342           
         F32       1.0000    0.12279   0.93503   0.21216   Biso      1.000     F          -0.200745           
         F33       1.0000    0.88597   0.00278   0.25437   Biso      1.000     F          -0.187186           
         F34       1.0000    0.68734   0.97429   0.21067   Biso      1.000     F          -0.202253           
         F35       1.0000    0.93832   0.03426   0.14920   Biso      1.000     F          -0.197352           
         F36       1.0000    0.33495   0.21216   0.85281   Biso      1.000     F          -0.200097           
         H1        1.0000    0.89510   0.89630   0.81940   Biso      1.000     H          0.108535  
         H2        1.0000    0.69390   0.80810   0.83230   Biso      1.000     H          0.123535  
         H3        1.0000    0.71590   0.20580   0.17050   Biso      1.000     H          0.123413  
         H4        1.0000    0.16810   0.00250   0.29570   Biso      1.000     H          0.118152  
         H5        1.0000    0.39610   0.03470   0.20730   Biso      1.000     H          0.111718  
         H6        1.0000    0.73060   0.09100   0.29930   Biso      1.000     H          0.133329  
         H7        1.0000    0.00120   0.71570   0.10370   Biso      1.000     H          0.108224  
         H8        1.0000    0.11420   0.64040   0.19190   Biso      1.000     H          0.123305  
         H9        1.0000    0.51010   0.62370   0.20580   Biso      1.000     H          0.123375  
         H10       1.0000    0.30610   0.19190   0.16770   Biso      1.000     H          0.123535  
         H11       1.0000    0.16560   0.70180   0.00250   Biso      1.000     H          0.117385  
         H12       1.0000    0.63960   0.60970   0.09100   Biso      1.000     H          0.133491  
         H13       1.0000    0.28550   0.18060   0.71570   Biso      1.000     H          0.106935  
         H14       1.0000    0.47380   0.16770   0.64040   Biso      1.000     H          0.123397  
         H15       1.0000    0.88640   0.17050   0.62370   Biso      1.000     H          0.123539  
         H16       1.0000    0.46380   0.29570   0.70180   Biso      1.000     H          0.117378  
         H17       1.0000    0.60340   0.20730   0.75800   Biso      1.000     H          0.112525  
         H18       1.0000    0.36140   0.75800   0.03470   Biso      1.000     H          0.112321  
         H19       1.0000    0.02990   0.29930   0.60970   Biso      1.000     H          0.132104  
         H20       1.0000    0.10490   0.10370   0.18060   Biso      1.000     H          0.108536  
         H21       1.0000    0.39660   0.79270   0.24200   Biso      1.000     H          0.112525  
         H22       1.0000    0.28410   0.79420   0.82950   Biso      1.000     H          0.123413  
         H23       1.0000    0.83190   0.99750   0.70430   Biso      1.000     H          0.118152  
         H24       1.0000    0.60390   0.96530   0.79270   Biso      1.000     H          0.111718  
         H25       1.0000    0.26940   0.90900   0.70070   Biso      1.000     H          0.13333   
         H26       1.0000    0.99880   0.28430   0.89630   Biso      1.000     H          0.108224  
         H27       1.0000    0.88580   0.35960   0.80810   Biso      1.000     H          0.123305  
         H28       1.0000    0.48990   0.37630   0.79420   Biso      1.000     H          0.123375  
         H29       1.0000    0.83440   0.29820   0.99750   Biso      1.000     H          0.117385  
         H30       1.0000    0.63860   0.24200   0.96530   Biso      1.000     H          0.112321  
         H31       1.0000    0.36040   0.39030   0.90900   Biso      1.000     H          0.133491  
         H32       1.0000    0.71450   0.81940   0.28430   Biso      1.000     H          0.106935  
         H33       1.0000    0.52620   0.83230   0.35960   Biso      1.000     H          0.123397  
         H34       1.0000    0.11360   0.82950   0.37630   Biso      1.000     H          0.123539  
         H35       1.0000    0.53620   0.70430   0.29820   Biso      1.000     H          0.117378  
         H36       1.0000    0.97010   0.70070   0.39030   Biso      1.000     H          0.132104  
         O1        1.0000    0.00849   0.62921   0.86344   Biso      1.000     O          -0.58359  
         O2        1.0000    0.66063   0.69430   0.80331   Biso      1.000     O          -0.495252           
         O3        1.0000    0.83559   0.41884   0.47577   Biso      1.000     O          -0.551587           
         O4        1.0000    0.27753   0.68309   0.85270   Biso      1.000     O          -0.530753           
         O5        1.0000    0.65029   0.64359   0.91202   Biso      1.000     O          -0.635987           
         O6        1.0000    0.34964   0.94347   0.57065   Biso      1.000     O          -0.575139           
         O7        1.0000    0.58325   0.89461   0.58116   Biso      1.000     O          -0.552449           
         O8        1.0000    0.99912   0.98686   0.61080   Biso      1.000     O          -0.516008           
         O9        1.0000    0.65036   0.05653   0.42935   Biso      1.000     O          -0.575139           
         O10       1.0000    0.64104   0.46490   0.55078   Biso      1.000     O          -0.663826           
         O11       1.0000    0.00088   0.01314   0.38920   Biso      1.000     O          -0.516008           
         O12       1.0000    0.17614   0.98432   0.46490   Biso      1.000     O          -0.663961           
         O13       1.0000    0.99330   0.55561   0.35641   Biso      1.000     O          -0.635725           
         O14       1.0000    0.03367   0.49761   0.30570   Biso      1.000     O          -0.494437           
         O15       1.0000    0.62072   0.49265   0.37079   Biso      1.000     O          -0.583476           
         O16       1.0000    0.40556   0.53579   0.31691   Biso      1.000     O          -0.53155  
         O17       1.0000    0.59383   0.51412   0.05653   Biso      1.000     O          -0.575025           
         O18       1.0000    0.31136   0.47577   0.10539   Biso      1.000     O          -0.552743           
         O19       1.0000    0.98774   0.59766   0.01314   Biso      1.000     O          -0.515039           
         O20       1.0000    0.19182   0.55078   0.98432   Biso      1.000     O          -0.663436           
         O21       1.0000    0.43769   0.08798   0.55561   Biso      1.000     O          -0.635945           
         O22       1.0000    0.53606   0.19669   0.49761   Biso      1.000     O          -0.494661           
         O23       1.0000    0.12807   0.13656   0.49265   Biso      1.000     O          -0.583132           
         O24       1.0000    0.86977   0.14730   0.53579   Biso      1.000     O          -0.531712           
         O25       1.0000    0.07971   0.42935   0.51412   Biso      1.000     O          -0.57476  
         O26       1.0000    0.72247   0.31691   0.14730   Biso      1.000     O          -0.530753           
         O27       1.0000    0.39008   0.38920   0.59766   Biso      1.000     O          -0.515204           
         O28       1.0000    0.99151   0.37079   0.13656   Biso      1.000     O          -0.58359  
         O29       1.0000    0.34971   0.35641   0.08798   Biso      1.000     O          -0.635987           
         O30       1.0000    0.82386   0.01568   0.53510   Biso      1.000     O          -0.663961           
         O31       1.0000    0.00670   0.44439   0.64359   Biso      1.000     O          -0.635725           
         O32       1.0000    0.96633   0.50239   0.69430   Biso      1.000     O          -0.494437           
         O33       1.0000    0.37928   0.50735   0.62921   Biso      1.000     O          -0.583476           
         O34       1.0000    0.59444   0.46421   0.68309   Biso      1.000     O          -0.53155  
         O35       1.0000    0.40617   0.48588   0.94347   Biso      1.000     O          -0.575025           
         O36       1.0000    0.68864   0.52423   0.89461   Biso      1.000     O          -0.552743           
         O37       1.0000    0.01226   0.40234   0.98686   Biso      1.000     O          -0.515039           
         O38       1.0000    0.80818   0.44922   0.01568   Biso      1.000     O          -0.663436           
         O39       1.0000    0.56231   0.91202   0.44439   Biso      1.000     O          -0.635945           
         O40       1.0000    0.46394   0.80331   0.50239   Biso      1.000     O          -0.494661           
         O41       1.0000    0.87193   0.86344   0.50735   Biso      1.000     O          -0.583132           
         O42       1.0000    0.13023   0.85270   0.46421   Biso      1.000     O          -0.531712           
         O43       1.0000    0.92029   0.57065   0.48588   Biso      1.000     O          -0.57476  
         O44       1.0000    0.16441   0.58116   0.52423   Biso      1.000     O          -0.551586           
         O45       1.0000    0.60992   0.61080   0.40234   Biso      1.000     O          -0.515204           
         O46       1.0000    0.35896   0.53510   0.44922   Biso      1.000     O          -0.663826           
         O47       1.0000    0.33937   0.30570   0.19669   Biso      1.000     O          -0.495252           
         O48       1.0000    0.41675   0.10539   0.41884   Biso      1.000     O          -0.552449 