
##########################################################################
#               Crystallographic Information Format file
#               Produced by PyCifRW module
#
#  This is a CIF file.  CIF has been adopted by the International
#  Union of Crystallography as the standard for data archiving and
#  transmission.
#
#  For information on this file format, follow the CIF links at
#  http://www.iucr.org
##########################################################################

data_image0

_cell_length_a                          7.2953
_cell_length_b                          13.2981
_cell_length_c                          30.7597
_cell_angle_alpha                       88.2585
_cell_angle_beta                        83.639
_cell_angle_gamma                       74.0798
_symmetry_space_group_name_H-M          'P 1'
_symmetry_int_tables_number             1
loop_
  _symmetry_equiv_pos_as_xyz
         'x, y, z' 
loop_
  _atom_site_label
  _atom_site_occupancy
  _atom_site_fract_x
  _atom_site_fract_y
  _atom_site_fract_z
  _atom_site_thermal_displace_type
  _atom_site_B_iso_or_equiv
  _atom_site_type_symbol
  _atom_site_charge
         C1        1.0000    0.08590   0.19340   0.43050   Biso      1.000     C          -0.028694           
         C2        1.0000    0.60620   0.28160   0.09810   Biso      1.000     C          0.08870499999999999           
         C3        1.0000    0.88720   0.79500   0.19870   Biso      1.000     C          0.547588  
         C4        1.0000    0.66050   0.92920   0.10020   Biso      1.000     C          -0.162192           
         C5        1.0000    0.78770   0.89620   0.13050   Biso      1.000     C          -0.107743           
         C6        1.0000    0.74230   0.84080   0.16640   Biso      1.000     C          -0.013563999999999998         
         C7        1.0000    0.56320   0.82320   0.17190   Biso      1.000     C          -0.074573           
         C8        1.0000    0.43550   0.85640   0.14170   Biso      1.000     C          -0.133076           
         C9        1.0000    0.48230   0.91060   0.10500   Biso      1.000     C          0.079697  
         C10       1.0000    0.72070   0.19340   0.06950   Biso      1.000     C          -0.026349           
         C11       1.0000    0.43500   0.27620   0.12160   Biso      1.000     C          -0.15179600000000001          
         C12       1.0000    0.35470   0.82740   0.96910   Biso      1.000     C          0.177058  
         C13       1.0000    0.54900   0.80940   0.02030   Biso      1.000     C          -0.164151           
         C14       1.0000    0.38440   0.88940   0.03200   Biso      1.000     C          0.173302  
         C15       1.0000    0.34360   0.94500   0.07130   Biso      1.000     C          -0.015874           
         C16       1.0000    0.17930   0.02280   0.08320   Biso      1.000     C          0.170323  
         C17       1.0000    0.13370   0.08340   0.12240   Biso      1.000     C          -0.160109           
         C18       1.0000    0.96530   0.15120   0.12230   Biso      1.000     C          -0.162397           
         C19       1.0000    0.89440   0.13840   0.08160   Biso      1.000     C          0.16930499999999998           
         C20       1.0000    0.97650   0.44700   0.36810   Biso      1.000     C          -0.095988           
         C21       1.0000    0.95610   0.36700   0.39670   Biso      1.000     C          -0.153223           
         C22       1.0000    0.53200   0.76900   0.98180   Biso      1.000     C          -0.183694           
         C23       1.0000    0.16430   0.52740   0.31120   Biso      1.000     C          0.539391  
         C24       1.0000    0.33440   0.35640   0.15020   Biso      1.000     C          -0.103289           
         C25       1.0000    0.57650   0.44700   0.13190   Biso      1.000     C          -0.096118           
         C26       1.0000    0.11220   0.28160   0.40190   Biso      1.000     C          0.087632  
         C27       1.0000    0.31780   0.79500   0.30130   Biso      1.000     C          0.54924   
         C28       1.0000    0.41030   0.92920   0.39980   Biso      1.000     C          -0.164751           
         C29       1.0000    0.31610   0.89620   0.36950   Biso      1.000     C          -0.103653           
         C30       1.0000    0.41690   0.84080   0.33360   Biso      1.000     C          -0.015872           
         C31       1.0000    0.61360   0.82320   0.32810   Biso      1.000     C          -0.07537  
         C32       1.0000    0.70810   0.85640   0.35830   Biso      1.000     C          -0.132556           
         C33       1.0000    0.60710   0.91060   0.39500   Biso      1.000     C          0.079172  
         C34       1.0000    0.15310   0.44180   0.34460   Biso      1.000     C          0.010454000000000001          
         C35       1.0000    0.40510   0.44180   0.15540   Biso      1.000     C          0.010865000000000001          
         C36       1.0000    0.81790   0.82740   0.53090   Biso      1.000     C          0.179066  
         C37       1.0000    0.64160   0.80940   0.47970   Biso      1.000     C          -0.161422           
         C38       1.0000    0.72620   0.88940   0.46800   Biso      1.000     C          0.17272   
         C39       1.0000    0.71140   0.94500   0.42870   Biso      1.000     C          -0.014341           
         C40       1.0000    0.79790   0.02280   0.41680   Biso      1.000     C          0.168711  
         C41       1.0000    0.78290   0.08340   0.37760   Biso      1.000     C          -0.159169           
         C42       1.0000    0.88350   0.15120   0.37770   Biso      1.000     C          -0.163348           
         C43       1.0000    0.96720   0.13840   0.41840   Biso      1.000     C          0.169705  
         C44       1.0000    0.30830   0.52740   0.18880   Biso      1.000     C          0.540542  
         C45       1.0000    0.67690   0.36700   0.10330   Biso      1.000     C          -0.152827           
         C46       1.0000    0.69900   0.76900   0.51820   Biso      1.000     C          -0.185425           
         C47       1.0000    0.10560   0.86160   0.91840   Biso      1.000     C          0.169301  
         C48       1.0000    0.03470   0.84880   0.87770   Biso      1.000     C          -0.162443           
         C49       1.0000    0.86630   0.91660   0.87760   Biso      1.000     C          -0.160063           
         C50       1.0000    0.28860   0.05500   0.57130   Biso      1.000     C          -0.014341           
         C51       1.0000    0.27380   0.11060   0.53200   Biso      1.000     C          0.172719  
         C52       1.0000    0.35840   0.19060   0.52030   Biso      1.000     C          -0.161422           
         C53       1.0000    0.30100   0.23100   0.48180   Biso      1.000     C          -0.185426           
         C54       1.0000    0.18210   0.17260   0.46910   Biso      1.000     C          0.179067  
         C55       1.0000    0.91410   0.80660   0.56950   Biso      1.000     C          -0.028693           
         C56       1.0000    0.39290   0.08940   0.60500   Biso      1.000     C          0.079165  
         C57       1.0000    0.29190   0.14360   0.64170   Biso      1.000     C          -0.13256199999999999          
         C58       1.0000    0.38640   0.17680   0.67190   Biso      1.000     C          -0.075362           
         C59       1.0000    0.20210   0.97720   0.58320   Biso      1.000     C          0.168711  
         C60       1.0000    0.58310   0.15920   0.66640   Biso      1.000     C          -0.015877000000000002         
         C61       1.0000    0.58970   0.07080   0.60020   Biso      1.000     C          -0.164743           
         C62       1.0000    0.68220   0.20500   0.69870   Biso      1.000     C          0.549241  
         C63       1.0000    0.88780   0.71840   0.59810   Biso      1.000     C          0.08763   
         C64       1.0000    0.71120   0.72380   0.62160   Biso      1.000     C          -0.15032  
         C65       1.0000    0.69080   0.64360   0.65020   Biso      1.000     C          -0.102078           
         C66       1.0000    0.84690   0.55820   0.65540   Biso      1.000     C          0.010451  
         C67       1.0000    0.02350   0.55300   0.63190   Biso      1.000     C          -0.095987           
         C68       1.0000    0.04390   0.63300   0.60330   Biso      1.000     C          -0.153221           
         C69       1.0000    0.83570   0.47260   0.68880   Biso      1.000     C          0.5393979999999999  
         C70       1.0000    0.68390   0.10380   0.63050   Biso      1.000     C          -0.103648           
         C71       1.0000    0.21710   0.91660   0.62240   Biso      1.000     C          -0.159169           
         C72       1.0000    0.11650   0.84880   0.62230   Biso      1.000     C          -0.163348           
         C73       1.0000    0.03280   0.86160   0.58160   Biso      1.000     C          0.169704  
         C74       1.0000    0.82070   0.97720   0.91680   Biso      1.000     C          0.170316  
         C75       1.0000    0.65640   0.05500   0.92870   Biso      1.000     C          -0.015871           
         C76       1.0000    0.61560   0.11060   0.96800   Biso      1.000     C          0.173301  
         C77       1.0000    0.45100   0.19060   0.97970   Biso      1.000     C          -0.164151           
         C78       1.0000    0.46800   0.23100   0.01820   Biso      1.000     C          -0.183694           
         C79       1.0000    0.64530   0.17260   0.03090   Biso      1.000     C          0.177059  
         C80       1.0000    0.27930   0.80660   0.93050   Biso      1.000     C          -0.026341000000000003         
         C81       1.0000    0.51770   0.08940   0.89500   Biso      1.000     C          0.079696  
         C82       1.0000    0.56450   0.14360   0.85830   Biso      1.000     C          -0.13308299999999998          
         C83       1.0000    0.43680   0.17680   0.82810   Biso      1.000     C          -0.074564           
         C84       1.0000    0.25770   0.15920   0.83360   Biso      1.000     C          -0.013571000000000001         
         C85       1.0000    0.21230   0.10380   0.86950   Biso      1.000     C          -0.10773699999999999          
         C86       1.0000    0.33950   0.07080   0.89980   Biso      1.000     C          -0.162192           
         C87       1.0000    0.11280   0.20500   0.80130   Biso      1.000     C          0.547601  
         C88       1.0000    0.39380   0.71840   0.90190   Biso      1.000     C          0.08870499999999999           
         C89       1.0000    0.56500   0.72380   0.87840   Biso      1.000     C          -0.15179600000000001          
         C90       1.0000    0.66560   0.64360   0.84980   Biso      1.000     C          -0.103289           
         C91       1.0000    0.59490   0.55820   0.84460   Biso      1.000     C          0.010865999999999999          
         C92       1.0000    0.42350   0.55300   0.86810   Biso      1.000     C          -0.096116           
         C93       1.0000    0.32310   0.63300   0.89670   Biso      1.000     C          -0.152827           
         C94       1.0000    0.69170   0.47260   0.81120   Biso      1.000     C          0.5405409999999999  
         C95       1.0000    0.28880   0.27620   0.37840   Biso      1.000     C          -0.15032  
         C96       1.0000    0.30920   0.35640   0.34980   Biso      1.000     C          -0.102076           
         Cd1       1.0000    0.15524   0.68952   0.25000   Biso      1.000     Cd          0.959482  
         Cd2       1.0000    0.84476   0.31048   0.75000   Biso      1.000     Cd          0.9594860000000001  
         H1        1.0000    0.89800   0.19880   0.35570   Biso      1.000     H          0.145266  
         H2        1.0000    0.87210   0.50420   0.36460   Biso      1.000     H          0.133082  
         H3        1.0000    0.42740   0.35280   0.33410   Biso      1.000     H          0.125583  
         H4        1.0000    0.39330   0.21900   0.38190   Biso      1.000     H          0.11109000000000001           
         H5        1.0000    0.33990   0.96520   0.42440   Biso      1.000     H          0.091679  
         H6        1.0000    0.18310   0.91120   0.37330   Biso      1.000     H          0.108982  
         H7        1.0000    0.84080   0.84260   0.35420   Biso      1.000     H          0.121753  
         H8        1.0000    0.66650   0.71360   0.53330   Biso      1.000     H          0.14205   
         H9        1.0000    0.55920   0.78720   0.46360   Biso      1.000     H          0.137918  
         H10       1.0000    0.71200   0.07580   0.35520   Biso      1.000     H          0.139405  
         H11       1.0000    0.79140   0.37060   0.08760   Biso      1.000     H          0.11817000000000001           
         H12       1.0000    0.62370   0.50420   0.13540   Biso      1.000     H          0.132758  
         H13       1.0000    0.21980   0.35280   0.16590   Biso      1.000     H          0.12621400000000002           
         H14       1.0000    0.38770   0.21900   0.11810   Biso      1.000     H          0.111948  
         H15       1.0000    0.69490   0.96520   0.07560   Biso      1.000     H          0.090537  
         H16       1.0000    0.90570   0.91120   0.12670   Biso      1.000     H          0.109724  
         H17       1.0000    0.52880   0.78780   0.19660   Biso      1.000     H          0.128584  
         H18       1.0000    0.31660   0.84260   0.14580   Biso      1.000     H          0.122155  
         H19       1.0000    0.61990   0.71360   0.96670   Biso      1.000     H          0.141375  
         H20       1.0000    0.65360   0.78720   0.03640   Biso      1.000     H          0.13910999999999998           
         H21       1.0000    0.21220   0.07580   0.14480   Biso      1.000     H          0.138647  
         H22       1.0000    0.90320   0.19880   0.14430   Biso      1.000     H          0.14518599999999998           
         H23       1.0000    0.83800   0.37060   0.41240   Biso      1.000     H          0.118817  
         H24       1.0000    0.09680   0.80120   0.85570   Biso      1.000     H          0.145188  
         H25       1.0000    0.68340   0.78780   0.30340   Biso      1.000     H          0.129281  
         H26       1.0000    0.34640   0.21280   0.96360   Biso      1.000     H          0.13910899999999998           
         H27       1.0000    0.16200   0.62940   0.58760   Biso      1.000     H          0.118816  
         H28       1.0000    0.12790   0.49580   0.63540   Biso      1.000     H          0.13308   
         H29       1.0000    0.57260   0.64720   0.66590   Biso      1.000     H          0.125584  
         H30       1.0000    0.60670   0.78100   0.61810   Biso      1.000     H          0.11108900000000001           
         H31       1.0000    0.78780   0.92420   0.85520   Biso      1.000     H          0.13864400000000002           
         H32       1.0000    0.81690   0.08880   0.62670   Biso      1.000     H          0.108982  
         H33       1.0000    0.31660   0.21220   0.69660   Biso      1.000     H          0.129281  
         H34       1.0000    0.15920   0.15740   0.64580   Biso      1.000     H          0.121754  
         H35       1.0000    0.33350   0.28640   0.46670   Biso      1.000     H          0.14205   
         H36       1.0000    0.44080   0.21280   0.53640   Biso      1.000     H          0.137918  
         H37       1.0000    0.28800   0.92420   0.64480   Biso      1.000     H          0.139405  
         H38       1.0000    0.66010   0.03480   0.57560   Biso      1.000     H          0.091678  
         H39       1.0000    0.38010   0.28640   0.03330   Biso      1.000     H          0.141375  
         H40       1.0000    0.20860   0.62940   0.91240   Biso      1.000     H          0.11817000000000001           
         H41       1.0000    0.37630   0.49580   0.86460   Biso      1.000     H          0.132758  
         H42       1.0000    0.78020   0.64720   0.83410   Biso      1.000     H          0.12621400000000002           
         H43       1.0000    0.61230   0.78100   0.88190   Biso      1.000     H          0.111948  
         H44       1.0000    0.30510   0.03480   0.92440   Biso      1.000     H          0.090537  
         H45       1.0000    0.09430   0.08880   0.87330   Biso      1.000     H          0.109723  
         H46       1.0000    0.47120   0.21220   0.80340   Biso      1.000     H          0.128583  
         H47       1.0000    0.68340   0.15740   0.85420   Biso      1.000     H          0.122154  
         H48       1.0000    0.10200   0.80120   0.64430   Biso      1.000     H          0.145265  
         N1        1.0000    0.08480   0.94100   0.55850   Biso      1.000     N          -0.268006           
         N2        1.0000    0.73690   0.09960   0.00030   Biso      1.000     N          -0.274713           
         N3        1.0000    0.97420   0.94100   0.94150   Biso      1.000     N          -0.267573           
         N4        1.0000    0.83650   0.90040   0.50030   Biso      1.000     N          -0.27536700000000003          
         N5        1.0000    0.02580   0.05900   0.05850   Biso      1.000     N          -0.267574           
         N6        1.0000    0.26310   0.90040   0.99970   Biso      1.000     N          -0.274713           
         N7        1.0000    0.16350   0.09960   0.49970   Biso      1.000     N          -0.27536700000000003          
         N8        1.0000    0.91520   0.05900   0.44150   Biso      1.000     N          -0.268006           
         O1        1.0000    0.95660   0.18380   0.80570   Biso      1.000     O          -0.479847           
         O2        1.0000    0.15370   0.26280   0.77192   Biso      1.000     O          -0.443299           
         O3        1.0000    0.85100   0.47200   0.79780   Biso      1.000     O          -0.450879           
         O4        1.0000    0.58350   0.26280   0.72808   Biso      1.000     O          -0.443767           
         O5        1.0000    0.85960   0.18380   0.69430   Biso      1.000     O          -0.480202           
         O6        1.0000    0.00570   0.59460   0.30390   Biso      1.000     O          -0.481439           
         O7        1.0000    0.60030   0.40540   0.80390   Biso      1.000     O          -0.481522           
         O8        1.0000    0.32300   0.52800   0.29780   Biso      1.000     O          -0.449974           
         O9        1.0000    0.99430   0.40540   0.69610   Biso      1.000     O          -0.481446           
         O10       1.0000    0.41650   0.73720   0.27192   Biso      1.000     O          -0.443766           
         O11       1.0000    0.39970   0.59460   0.19610   Biso      1.000     O          -0.481522           
         O12       1.0000    0.14900   0.52800   0.20220   Biso      1.000     O          -0.45088  
         O13       1.0000    0.04340   0.81620   0.19430   Biso      1.000     O          -0.479839           
         O14       1.0000    0.84630   0.73720   0.22808   Biso      1.000     O          -0.44328599999999996          
         O15       1.0000    0.67700   0.47200   0.70220   Biso      1.000     O          -0.44996899999999995          
         O16       1.0000    0.14040   0.81620   0.30570   Biso      1.000     O          -0.480206           
         Pd1       1.0000    0.00000   0.00000   0.00000   Biso      1.000     Pd          0.327986  
         Pd2       1.0000    0.00000   0.00000   0.50000   Biso      1.000     Pd          0.328538 