
##########################################################################
#               Crystallographic Information Format file
#               Produced by PyCifRW module
#
#  This is a CIF file.  CIF has been adopted by the International
#  Union of Crystallography as the standard for data archiving and
#  transmission.
#
#  For information on this file format, follow the CIF links at
#  http://www.iucr.org
##########################################################################

data_image0

_cell_length_a                          7.1564
_cell_length_b                          13.0405
_cell_length_c                          31.192
_cell_angle_alpha                       88.2781
_cell_angle_beta                        83.713
_cell_angle_gamma                       74.0743
_symmetry_space_group_name_H-M          'P 1'
_symmetry_int_tables_number             1
loop_
  _symmetry_equiv_pos_as_xyz
         'x, y, z' 
loop_
  _atom_site_label
  _atom_site_occupancy
  _atom_site_fract_x
  _atom_site_fract_y
  _atom_site_fract_z
  _atom_site_thermal_displace_type
  _atom_site_B_iso_or_equiv
  _atom_site_type_symbol
  _atom_site_charge
         C1        1.0000    0.48290   0.30020   0.43290   Biso      1.000     C          -0.038525           
         C2        1.0000    0.30340   0.20720   0.09680   Biso      1.000     C          0.087465  
         C3        1.0000    0.92450   0.69700   0.19860   Biso      1.000     C          0.543571  
         C4        1.0000    0.24440   0.56920   0.10070   Biso      1.000     C          -0.163668           
         C5        1.0000    0.08180   0.59840   0.13140   Biso      1.000     C          -0.107447           
         C6        1.0000    0.09750   0.66100   0.16690   Biso      1.000     C          -0.014326           
         C7        1.0000    0.26490   0.68420   0.17020   Biso      1.000     C          -0.075366           
         C8        1.0000    0.42320   0.64960   0.14010   Biso      1.000     C          -0.129708           
         C9        1.0000    0.41000   0.59420   0.10350   Biso      1.000     C          0.083589  
         C10       1.0000    0.21690   0.30020   0.06710   Biso      1.000     C          -0.037369           
         C11       1.0000    0.44850   0.21700   0.12120   Biso      1.000     C          -0.153491           
         C12       1.0000    0.67500   0.68000   0.96920   Biso      1.000     C          0.158756  
         C13       1.0000    0.42850   0.70100   0.02150   Biso      1.000     C          -0.170086           
         C14       1.0000    0.58350   0.61700   0.03310   Biso      1.000     C          0.180688  
         C15       1.0000    0.58840   0.56020   0.07050   Biso      1.000     C          -0.018268           
         C16       1.0000    0.74170   0.47860   0.08220   Biso      1.000     C          0.170665  
         C17       1.0000    0.74910   0.41580   0.11970   Biso      1.000     C          -0.162071           
         C18       1.0000    0.91690   0.34020   0.11890   Biso      1.000     C          -0.178831           
         C19       1.0000    0.02780   0.35640   0.07940   Biso      1.000     C          0.185346  
         C20       1.0000    0.65560   0.03880   0.36910   Biso      1.000     C          -0.104666           
         C21       1.0000    0.65000   0.11800   0.39830   Biso      1.000     C          -0.151377           
         C22       1.0000    0.47720   0.74360   0.98240   Biso      1.000     C          -0.169919           
         C23       1.0000    0.52220   0.95960   0.31150   Biso      1.000     C          0.533952  
         C24       1.0000    0.52210   0.13780   0.15050   Biso      1.000     C          -0.099951           
         C25       1.0000    0.30560   0.03880   0.13090   Biso      1.000     C          -0.104336           
         C26       1.0000    0.48940   0.20720   0.40320   Biso      1.000     C          0.086968  
         C27       1.0000    0.37850   0.69700   0.30140   Biso      1.000     C          0.543269  
         C28       1.0000    0.18640   0.56920   0.39930   Biso      1.000     C          -0.16394  
         C29       1.0000    0.31980   0.59840   0.36860   Biso      1.000     C          -0.109713           
         C30       1.0000    0.24150   0.66100   0.33310   Biso      1.000     C          -0.013072           
         C31       1.0000    0.05090   0.68420   0.32980   Biso      1.000     C          -0.074413           
         C32       1.0000    0.92720   0.64960   0.35990   Biso      1.000     C          -0.13068  
         C33       1.0000    0.99580   0.59420   0.39650   Biso      1.000     C          0.084116  
         C34       1.0000    0.49970   0.04860   0.34470   Biso      1.000     C          0.012374  
         C35       1.0000    0.45170   0.04860   0.15530   Biso      1.000     C          0.012362  
         C36       1.0000    0.64500   0.68000   0.53080   Biso      1.000     C          0.159573  
         C37       1.0000    0.87050   0.70100   0.47850   Biso      1.000     C          -0.167285           
         C38       1.0000    0.79950   0.61700   0.46690   Biso      1.000     C          0.179658  
         C39       1.0000    0.85140   0.56020   0.42950   Biso      1.000     C          -0.018577           
         C40       1.0000    0.77970   0.47860   0.41780   Biso      1.000     C          0.17157   
         C41       1.0000    0.83510   0.41580   0.38030   Biso      1.000     C          -0.163032           
         C42       1.0000    0.74290   0.34020   0.38110   Biso      1.000     C          -0.178348           
         C43       1.0000    0.61580   0.35640   0.42060   Biso      1.000     C          0.185942  
         C44       1.0000    0.51820   0.95960   0.18850   Biso      1.000     C          0.533383  
         C45       1.0000    0.23200   0.11800   0.10170   Biso      1.000     C          -0.152422           
         C46       1.0000    0.77920   0.74360   0.51760   Biso      1.000     C          -0.170057           
         C47       1.0000    0.97220   0.64360   0.92060   Biso      1.000     C          0.185342  
         C48       1.0000    0.08310   0.65980   0.88110   Biso      1.000     C          -0.178867           
         C49       1.0000    0.25090   0.58420   0.88030   Biso      1.000     C          -0.162033           
         C50       1.0000    0.14860   0.43980   0.57050   Biso      1.000     C          -0.018583           
         C51       1.0000    0.20050   0.38300   0.53310   Biso      1.000     C          0.179666  
         C52       1.0000    0.12950   0.29900   0.52150   Biso      1.000     C          -0.167285           
         C53       1.0000    0.22080   0.25640   0.48240   Biso      1.000     C          -0.170058           
         C54       1.0000    0.35500   0.32000   0.46920   Biso      1.000     C          0.159583  
         C55       1.0000    0.51710   0.69980   0.56710   Biso      1.000     C          -0.038515           
         C56       1.0000    0.00420   0.40580   0.60350   Biso      1.000     C          0.084085  
         C57       1.0000    0.07280   0.35040   0.64010   Biso      1.000     C          -0.13068  
         C58       1.0000    0.94910   0.31580   0.67020   Biso      1.000     C          -0.074439           
         C59       1.0000    0.22030   0.52140   0.58220   Biso      1.000     C          0.171571  
         C60       1.0000    0.75850   0.33900   0.66690   Biso      1.000     C          -0.013043           
         C61       1.0000    0.81360   0.43080   0.60070   Biso      1.000     C          -0.163905           
         C62       1.0000    0.62150   0.30300   0.69860   Biso      1.000     C          0.543256  
         C63       1.0000    0.51060   0.79280   0.59680   Biso      1.000     C          0.086967  
         C64       1.0000    0.66550   0.78300   0.62120   Biso      1.000     C          -0.152459           
         C65       1.0000    0.65990   0.86220   0.65050   Biso      1.000     C          -0.099513           
         C66       1.0000    0.50030   0.95140   0.65530   Biso      1.000     C          0.012378  
         C67       1.0000    0.34440   0.96120   0.63090   Biso      1.000     C          -0.104667           
         C68       1.0000    0.35000   0.88200   0.60170   Biso      1.000     C          -0.151377           
         C69       1.0000    0.47780   0.04040   0.68850   Biso      1.000     C          0.533952  
         C70       1.0000    0.68020   0.40160   0.63140   Biso      1.000     C          -0.109721           
         C71       1.0000    0.16490   0.58420   0.61970   Biso      1.000     C          -0.163032           
         C72       1.0000    0.25710   0.65980   0.61890   Biso      1.000     C          -0.178348           
         C73       1.0000    0.38420   0.64360   0.57940   Biso      1.000     C          0.185941  
         C74       1.0000    0.25830   0.52140   0.91780   Biso      1.000     C          0.170659  
         C75       1.0000    0.41160   0.43980   0.92950   Biso      1.000     C          -0.018272           
         C76       1.0000    0.41650   0.38300   0.96690   Biso      1.000     C          0.180697  
         C77       1.0000    0.57150   0.29900   0.97850   Biso      1.000     C          -0.170087           
         C78       1.0000    0.52280   0.25640   0.01760   Biso      1.000     C          -0.16992  
         C79       1.0000    0.32500   0.32000   0.03080   Biso      1.000     C          0.158767  
         C80       1.0000    0.78310   0.69980   0.93290   Biso      1.000     C          -0.037354           
         C81       1.0000    0.59000   0.40580   0.89650   Biso      1.000     C          0.083554  
         C82       1.0000    0.57680   0.35040   0.85990   Biso      1.000     C          -0.129704           
         C83       1.0000    0.73510   0.31580   0.82980   Biso      1.000     C          -0.075399           
         C84       1.0000    0.90250   0.33900   0.83310   Biso      1.000     C          -0.014293           
         C85       1.0000    0.91820   0.40160   0.86860   Biso      1.000     C          -0.107455           
         C86       1.0000    0.75560   0.43080   0.89930   Biso      1.000     C          -0.163628           
         C87       1.0000    0.07550   0.30300   0.80140   Biso      1.000     C          0.543567  
         C88       1.0000    0.69660   0.79280   0.90320   Biso      1.000     C          0.087465  
         C89       1.0000    0.55150   0.78300   0.87880   Biso      1.000     C          -0.15349  
         C90       1.0000    0.47790   0.86220   0.84950   Biso      1.000     C          -0.09995  
         C91       1.0000    0.54830   0.95140   0.84470   Biso      1.000     C          0.01236   
         C92       1.0000    0.69440   0.96120   0.86910   Biso      1.000     C          -0.104334           
         C93       1.0000    0.76800   0.88200   0.89830   Biso      1.000     C          -0.152421           
         C94       1.0000    0.48180   0.04040   0.81150   Biso      1.000     C          0.533381  
         C95       1.0000    0.33450   0.21700   0.37880   Biso      1.000     C          -0.152459           
         C96       1.0000    0.34010   0.13780   0.34950   Biso      1.000     C          -0.099509           
         Cd1       1.0000    0.59868   0.80264   0.25000   Biso      1.000     Cd          0.952252  
         Cd2       1.0000    0.40132   0.19736   0.75000   Biso      1.000     Cd          0.952249  
         H1        1.0000    0.75720   0.28780   0.36050   Biso      1.000     H          0.146082  
         H2        1.0000    0.76270   0.97920   0.36580   Biso      1.000     H          0.132041  
         H3        1.0000    0.23580   0.14440   0.33320   Biso      1.000     H          0.125767  
         H4        1.0000    0.22730   0.27660   0.38200   Biso      1.000     H          0.11317   
         H5        1.0000    0.23410   0.53020   0.42310   Biso      1.000     H          0.090939  
         H6        1.0000    0.45300   0.57800   0.37110   Biso      1.000     H          0.112873  
         H7        1.0000    0.79570   0.66340   0.35590   Biso      1.000     H          0.116691  
         H8        1.0000    0.79920   0.80020   0.53230   Biso      1.000     H          0.14676   
         H9        1.0000    0.96720   0.72460   0.46200   Biso      1.000     H          0.13651   
         H10       1.0000    0.92520   0.42580   0.35780   Biso      1.000     H          0.13633   
         H11       1.0000    0.13450   0.11140   0.08530   Biso      1.000     H          0.118724  
         H12       1.0000    0.25810   0.97920   0.13420   Biso      1.000     H          0.132277  
         H13       1.0000    0.61980   0.14440   0.16680   Biso      1.000     H          0.126292  
         H14       1.0000    0.49610   0.27660   0.11800   Biso      1.000     H          0.113665  
         H15       1.0000    0.23570   0.53020   0.07690   Biso      1.000     H          0.0906    
         H16       1.0000    0.96900   0.57800   0.12890   Biso      1.000     H          0.111688  
         H17       1.0000    0.27510   0.72500   0.19340   Biso      1.000     H          0.130549  
         H18       1.0000    0.54090   0.66340   0.14410   Biso      1.000     H          0.116264  
         H19       1.0000    0.40060   0.80020   0.96770   Biso      1.000     H          0.147283  
         H20       1.0000    0.30820   0.72460   0.03800   Biso      1.000     H          0.137701  
         H21       1.0000    0.64900   0.42580   0.14220   Biso      1.000     H          0.13607   
         H22       1.0000    0.95500   0.28780   0.13950   Biso      1.000     H          0.146416  
         H23       1.0000    0.75410   0.11140   0.41470   Biso      1.000     H          0.11823   
         H24       1.0000    0.04500   0.71220   0.86050   Biso      1.000     H          0.146418  
         H25       1.0000    0.99990   0.72500   0.30660   Biso      1.000     H          0.130024  
         H26       1.0000    0.69180   0.27540   0.96200   Biso      1.000     H          0.137701  
         H27       1.0000    0.24590   0.88860   0.58530   Biso      1.000     H          0.118231  
         H28       1.0000    0.23730   0.02080   0.63420   Biso      1.000     H          0.132042  
         H29       1.0000    0.76420   0.85560   0.66680   Biso      1.000     H          0.125768  
         H30       1.0000    0.77270   0.72340   0.61800   Biso      1.000     H          0.11317   
         H31       1.0000    0.35100   0.57420   0.85780   Biso      1.000     H          0.136068  
         H32       1.0000    0.54700   0.42200   0.62890   Biso      1.000     H          0.112874  
         H33       1.0000    0.00010   0.27500   0.69340   Biso      1.000     H          0.130026  
         H34       1.0000    0.20430   0.33660   0.64410   Biso      1.000     H          0.116691  
         H35       1.0000    0.20080   0.19980   0.46770   Biso      1.000     H          0.14676   
         H36       1.0000    0.03280   0.27540   0.53800   Biso      1.000     H          0.13651   
         H37       1.0000    0.07480   0.57420   0.64220   Biso      1.000     H          0.13633   
         H38       1.0000    0.76590   0.46980   0.57690   Biso      1.000     H          0.090936  
         H39       1.0000    0.59940   0.19980   0.03230   Biso      1.000     H          0.147284  
         H40       1.0000    0.86550   0.88860   0.91470   Biso      1.000     H          0.118723  
         H41       1.0000    0.74190   0.02080   0.86580   Biso      1.000     H          0.132277  
         H42       1.0000    0.38020   0.85560   0.83320   Biso      1.000     H          0.126291  
         H43       1.0000    0.50390   0.72340   0.88200   Biso      1.000     H          0.113665  
         H44       1.0000    0.76430   0.46980   0.92310   Biso      1.000     H          0.090597  
         H45       1.0000    0.03100   0.42200   0.87110   Biso      1.000     H          0.111689  
         H46       1.0000    0.72490   0.27500   0.80660   Biso      1.000     H          0.130551  
         H47       1.0000    0.45910   0.33660   0.85590   Biso      1.000     H          0.116263  
         H48       1.0000    0.24280   0.71220   0.63950   Biso      1.000     H          0.146082  
         N1        1.0000    0.35440   0.56280   0.55760   Biso      1.000     N          -0.272111           
         N2        1.0000    0.25730   0.39840   0.99900   Biso      1.000     N          -0.280702           
         N3        1.0000    0.08280   0.56280   0.94240   Biso      1.000     N          -0.271531           
         N4        1.0000    0.65570   0.60160   0.49900   Biso      1.000     N          -0.281229           
         N5        1.0000    0.91720   0.43720   0.05760   Biso      1.000     N          -0.271532           
         N6        1.0000    0.74270   0.60160   0.00100   Biso      1.000     N          -0.280701           
         N7        1.0000    0.34430   0.39840   0.50100   Biso      1.000     N          -0.281231           
         N8        1.0000    0.64560   0.43720   0.44240   Biso      1.000     N          -0.272111           
         O1        1.0000    0.22810   0.33020   0.80450   Biso      1.000     O          -0.488164           
         O2        1.0000    0.06590   0.24160   0.77250   Biso      1.000     O          -0.429074           
         O3        1.0000    0.33840   0.02720   0.79910   Biso      1.000     O          -0.409364           
         O4        1.0000    0.69250   0.24160   0.72750   Biso      1.000     O          -0.428701           
         O5        1.0000    0.44170   0.33020   0.69550   Biso      1.000     O          -0.488348           
         O6        1.0000    0.69040   0.89320   0.30070   Biso      1.000     O          -0.492168           
         O7        1.0000    0.58360   0.10680   0.80070   Biso      1.000     O          -0.492518           
         O8        1.0000    0.36560   0.97280   0.29910   Biso      1.000     O          -0.410196           
         O9        1.0000    0.30960   0.10680   0.69930   Biso      1.000     O          -0.492171           
         O10       1.0000    0.30750   0.75840   0.27250   Biso      1.000     O          -0.428711           
         O11       1.0000    0.41640   0.89320   0.19930   Biso      1.000     O          -0.492524           
         O12       1.0000    0.66160   0.97280   0.20090   Biso      1.000     O          -0.409373           
         O13       1.0000    0.77190   0.66980   0.19550   Biso      1.000     O          -0.48816  
         O14       1.0000    0.93410   0.75840   0.22750   Biso      1.000     O          -0.429078           
         O15       1.0000    0.63440   0.02720   0.70090   Biso      1.000     O          -0.410206           
         O16       1.0000    0.55830   0.66980   0.30450   Biso      1.000     O          -0.488359           
         Pd1       1.0000    0.00000   0.50000   0.00000   Biso      1.000     Pd          0.338045  
         Pd2       1.0000    0.50000   0.50000   0.50000   Biso      1.000     Pd          0.339134 