
##########################################################################
#               Crystallographic Information Format file
#               Produced by PyCifRW module
#
#  This is a CIF file.  CIF has been adopted by the International
#  Union of Crystallography as the standard for data archiving and
#  transmission.
#
#  For information on this file format, follow the CIF links at
#  http://www.iucr.org
##########################################################################

data_image0

_cell_length_a                          14.333
_cell_length_b                          14.642
_cell_length_c                          14.642
_cell_angle_alpha                       90
_cell_angle_beta                        90
_cell_angle_gamma                       90
_symmetry_space_group_name_H-M          'P 1'
_symmetry_int_tables_number             1
loop_
  _symmetry_equiv_pos_as_xyz
         'x, y, z' 
loop_
  _atom_site_label
  _atom_site_occupancy
  _atom_site_fract_x
  _atom_site_fract_y
  _atom_site_fract_z
  _atom_site_thermal_displace_type
  _atom_site_B_iso_or_equiv
  _atom_site_type_symbol
  _atom_site_charge
         C1        1.0000    0.32140   0.64360   0.96530   Biso      1.000     C          -0.094242           
         C2        1.0000    0.98750   0.40090   0.39920   Biso      1.000     C          0.621666  
         C3        1.0000    0.06050   0.25060   0.41830   Biso      1.000     C          -0.143664           
         C4        1.0000    0.13270   0.19300   0.44950   Biso      1.000     C          0.086004  
         C5        1.0000    0.21030   0.23310   0.49250   Biso      1.000     C          -0.155555           
         C6        1.0000    0.21500   0.32640   0.50110   Biso      1.000     C          -0.002666           
         C7        1.0000    0.14260   0.38190   0.47190   Biso      1.000     C          -0.101692           
         C8        1.0000    0.06620   0.34470   0.42880   Biso      1.000     C          -0.015681           
         C9        1.0000    0.31210   0.57610   0.81090   Biso      1.000     C          0.556072  
         C10       1.0000    0.39080   0.48520   0.03930   Biso      1.000     C          -0.140449           
         C11       1.0000    0.37160   0.48880   0.94460   Biso      1.000     C          -0.099831           
         C12       1.0000    0.33780   0.56940   0.90890   Biso      1.000     C          -0.000259           
         C13       1.0000    0.33770   0.63910   0.05730   Biso      1.000     C          -0.144387           
         C14       1.0000    0.37280   0.55930   0.09350   Biso      1.000     C          0.09982   
         C15       1.0000    0.55040   0.45630   0.36970   Biso      1.000     C          0.611464  
         C16       1.0000    0.23750   0.60080   0.40090   Biso      1.000     C          0.621666  
         C17       1.0000    0.31050   0.58170   0.25060   Biso      1.000     C          -0.143665           
         C18       1.0000    0.38270   0.55050   0.19300   Biso      1.000     C          0.086003  
         C19       1.0000    0.46500   0.49890   0.32640   Biso      1.000     C          -0.002666           
         C20       1.0000    0.39260   0.52810   0.38190   Biso      1.000     C          -0.101692           
         C21       1.0000    0.30040   0.36970   0.54370   Biso      1.000     C          0.611464  
         C22       1.0000    0.31620   0.57120   0.34470   Biso      1.000     C          -0.015681           
         C23       1.0000    0.12280   0.09350   0.44070   Biso      1.000     C          0.099811  
         C24       1.0000    0.07140   0.96530   0.35640   Biso      1.000     C          -0.094243           
         C25       1.0000    0.56210   0.18910   0.57610   Biso      1.000     C          0.55607   
         C26       1.0000    0.64080   0.96070   0.48520   Biso      1.000     C          -0.140449           
         C27       1.0000    0.62160   0.05540   0.48880   Biso      1.000     C          -0.099831           
         C28       1.0000    0.58780   0.09110   0.56940   Biso      1.000     C          -0.000261           
         C29       1.0000    0.57140   0.03470   0.64360   Biso      1.000     C          -0.09424  
         C30       1.0000    0.58770   0.94270   0.63910   Biso      1.000     C          -0.144387           
         C31       1.0000    0.62280   0.90650   0.55930   Biso      1.000     C          0.09982   
         C32       1.0000    0.80040   0.63030   0.45630   Biso      1.000     C          0.611464  
         C33       1.0000    0.48750   0.59910   0.60080   Biso      1.000     C          0.621666  
         C34       1.0000    0.56050   0.74940   0.58170   Biso      1.000     C          -0.143665           
         C35       1.0000    0.63270   0.80700   0.55050   Biso      1.000     C          0.086003  
         C36       1.0000    0.71030   0.76690   0.50750   Biso      1.000     C          -0.155554           
         C37       1.0000    0.71500   0.67360   0.49890   Biso      1.000     C          -0.002666           
         C38       1.0000    0.64260   0.61810   0.52810   Biso      1.000     C          -0.101692           
         C39       1.0000    0.56620   0.65530   0.57120   Biso      1.000     C          -0.015681           
         C40       1.0000    0.06210   0.81090   0.42390   Biso      1.000     C          0.55607   
         C41       1.0000    0.14080   0.03930   0.51480   Biso      1.000     C          -0.140441           
         C42       1.0000    0.12160   0.94460   0.51120   Biso      1.000     C          -0.099833           
         C43       1.0000    0.08780   0.90890   0.43060   Biso      1.000     C          -0.000258           
         C44       1.0000    0.08770   0.05730   0.36090   Biso      1.000     C          -0.144383           
         C45       1.0000    0.81210   0.42390   0.18910   Biso      1.000     C          0.55607   
         C46       1.0000    0.46030   0.50750   0.23310   Biso      1.000     C          -0.155554           
         C47       1.0000    0.87160   0.51120   0.05540   Biso      1.000     C          -0.099832           
         C48       1.0000    0.81620   0.42880   0.65530   Biso      1.000     C          -0.015683           
         C49       1.0000    0.96500   0.50110   0.67360   Biso      1.000     C          -0.002667           
         C50       1.0000    0.96030   0.49250   0.76690   Biso      1.000     C          -0.155554           
         C51       1.0000    0.88270   0.44950   0.80700   Biso      1.000     C          0.086004  
         C52       1.0000    0.81050   0.41830   0.74940   Biso      1.000     C          -0.143665           
         C53       1.0000    0.73750   0.39920   0.59910   Biso      1.000     C          0.621667  
         C54       1.0000    0.89260   0.47190   0.61810   Biso      1.000     C          -0.10169  
         C55       1.0000    0.87280   0.44070   0.90650   Biso      1.000     C          0.099811  
         C56       1.0000    0.05040   0.54370   0.63030   Biso      1.000     C          0.611464  
         C57       1.0000    0.83780   0.43060   0.09110   Biso      1.000     C          -0.000261           
         C58       1.0000    0.82140   0.35640   0.03470   Biso      1.000     C          -0.09424  
         C59       1.0000    0.89080   0.51480   0.96070   Biso      1.000     C          -0.140442           
         C60       1.0000    0.83770   0.36090   0.94270   Biso      1.000     C          -0.144384           
         H1        1.0000    0.41580   0.43240   0.06470   Biso      1.000     H          0.122109  
         H2        1.0000    0.75840   0.39020   0.77470   Biso      1.000     H          0.126996  
         H3        1.0000    0.82530   0.31100   0.90530   Biso      1.000     H          0.124464  
         H4        1.0000    0.89570   0.48140   0.55540   Biso      1.000     H          0.118868  
         H5        1.0000    0.88140   0.56180   0.09250   Biso      1.000     H          0.128486  
         H6        1.0000    0.91580   0.56760   0.93530   Biso      1.000     H          0.122109  
         H7        1.0000    0.39570   0.51860   0.44460   Biso      1.000     H          0.118868  
         H8        1.0000    0.50810   0.48500   0.19660   Biso      1.000     H          0.132724  
         H9        1.0000    0.25840   0.60980   0.22530   Biso      1.000     H          0.126996  
         H10       1.0000    0.32530   0.68900   0.09470   Biso      1.000     H          0.124465  
         H11       1.0000    0.29880   0.69760   0.94020   Biso      1.000     H          0.120371  
         H12       1.0000    0.38140   0.43820   0.90750   Biso      1.000     H          0.128486  
         H13       1.0000    0.00810   0.51500   0.80340   Biso      1.000     H          0.132724  
         H14       1.0000    0.79880   0.30240   0.05980   Biso      1.000     H          0.120371  
         H15       1.0000    0.25810   0.19660   0.51500   Biso      1.000     H          0.132724  
         H16       1.0000    0.00840   0.22530   0.39020   Biso      1.000     H          0.126996  
         H17       1.0000    0.14570   0.44460   0.48140   Biso      1.000     H          0.118868  
         H18       1.0000    0.66580   0.93530   0.43240   Biso      1.000     H          0.122109  
         H19       1.0000    0.63140   0.09250   0.43820   Biso      1.000     H          0.128486  
         H20       1.0000    0.54880   0.05980   0.69760   Biso      1.000     H          0.120371  
         H21       1.0000    0.50840   0.77470   0.60980   Biso      1.000     H          0.126996  
         H22       1.0000    0.57530   0.90530   0.68900   Biso      1.000     H          0.124465  
         H23       1.0000    0.64570   0.55540   0.51860   Biso      1.000     H          0.118868  
         H24       1.0000    0.16580   0.06470   0.56760   Biso      1.000     H          0.122108  
         H25       1.0000    0.13140   0.90750   0.56180   Biso      1.000     H          0.128486  
         H26       1.0000    0.04880   0.94020   0.30240   Biso      1.000     H          0.120371  
         H27       1.0000    0.07530   0.09470   0.31100   Biso      1.000     H          0.124464  
         H28       1.0000    0.75810   0.80340   0.48500   Biso      1.000     H          0.132724  
         O1        1.0000    0.37400   0.32730   0.54090   Biso      1.000     O          -0.568878           
         O2        1.0000    0.32590   0.50830   0.76070   Biso      1.000     O          -0.508293           
         O3        1.0000    0.91160   0.36230   0.38580   Biso      1.000     O          -0.565327           
         O4        1.0000    0.99860   0.48570   0.39170   Biso      1.000     O          -0.558707           
         O5        1.0000    0.29010   0.44820   0.57860   Biso      1.000     O          -0.542986           
         O6        1.0000    0.41160   0.63770   0.61420   Biso      1.000     O          -0.565327           
         O7        1.0000    0.07590   0.76070   0.49170   Biso      1.000     O          -0.508291           
         O8        1.0000    0.79010   0.55180   0.42140   Biso      1.000     O          -0.542986           
         O9        1.0000    0.87400   0.67270   0.45910   Biso      1.000     O          -0.568877           
         O10       1.0000    0.49860   0.51430   0.60830   Biso      1.000     O          -0.558706           
         O11       1.0000    0.28170   0.64920   0.77970   Biso      1.000     O          -0.543424           
         O12       1.0000    0.03170   0.77970   0.35080   Biso      1.000     O          -0.543423           
         O13       1.0000    0.54010   0.42140   0.44820   Biso      1.000     O          -0.542987           
         O14       1.0000    0.57590   0.23930   0.50830   Biso      1.000     O          -0.508292           
         O15       1.0000    0.24860   0.60830   0.48570   Biso      1.000     O          -0.558707           
         O16       1.0000    0.16160   0.61420   0.36230   Biso      1.000     O          -0.565326           
         O17       1.0000    0.82590   0.49170   0.23930   Biso      1.000     O          -0.508291           
         O18       1.0000    0.78170   0.35080   0.22030   Biso      1.000     O          -0.543423           
         O19       1.0000    0.04010   0.57860   0.55180   Biso      1.000     O          -0.542987           
         O20       1.0000    0.12400   0.54090   0.67270   Biso      1.000     O          -0.568877           
         O21       1.0000    0.74860   0.39170   0.51430   Biso      1.000     O          -0.558707           
         O22       1.0000    0.66160   0.38580   0.63770   Biso      1.000     O          -0.565328           
         O23       1.0000    0.53170   0.22030   0.64920   Biso      1.000     O          -0.543423           
         O24       1.0000    0.62400   0.45910   0.32730   Biso      1.000     O          -0.568877           
         Yb1       1.0000    0.26506   0.58641   0.63346   Biso      1.000     Yb          1.336996  
         Yb2       1.0000    0.76506   0.41359   0.36654   Biso      1.000     Yb          1.336996  
         Yb3       1.0000    0.01506   0.63346   0.41359   Biso      1.000     Yb          1.336996  
         Yb4       1.0000    0.51506   0.36654   0.58641   Biso      1.000     Yb          1.336996 