
##########################################################################
#               Crystallographic Information Format file
#               Produced by PyCifRW module
#
#  This is a CIF file.  CIF has been adopted by the International
#  Union of Crystallography as the standard for data archiving and
#  transmission.
#
#  For information on this file format, follow the CIF links at
#  http://www.iucr.org
##########################################################################

data_image0

_cell_length_a                          17.4393
_cell_length_b                          10.1483
_cell_length_c                          17.5771
_cell_angle_alpha                       90
_cell_angle_beta                        90
_cell_angle_gamma                       90
_symmetry_space_group_name_H-M          'P 1'
_symmetry_int_tables_number             1
loop_
  _symmetry_equiv_pos_as_xyz
         'x, y, z' 
loop_
  _atom_site_label
  _atom_site_occupancy
  _atom_site_fract_x
  _atom_site_fract_y
  _atom_site_fract_z
  _atom_site_thermal_displace_type
  _atom_site_B_iso_or_equiv
  _atom_site_type_symbol
  _atom_site_charge
         C1        1.0000    0.98410   0.90620   0.37430   Biso      1.000     C          0.661555  
         C2        1.0000    0.46760   0.54480   0.07560   Biso      1.000     C          -0.128924           
         C3        1.0000    0.08380   0.56360   0.04160   Biso      1.000     C          -0.124303           
         C4        1.0000    0.14440   0.36390   0.65680   Biso      1.000     C          0.6598149999999999  
         C5        1.0000    0.13930   0.34760   0.87880   Biso      1.000     C          0.655698  
         C6        1.0000    0.15150   0.52550   0.07580   Biso      1.000     C          -0.142319           
         C7        1.0000    0.24790   0.45990   0.48100   Biso      1.000     C          -0.12071300000000001          
         C8        1.0000    0.17990   0.50430   0.45460   Biso      1.000     C          -0.14133199999999999          
         C9        1.0000    0.16160   0.55900   0.37820   Biso      1.000     C          0.694297  
         C10       1.0000    0.17910   0.56710   0.15100   Biso      1.000     C          0.678708  
         C11       1.0000    0.08630   0.92950   0.47790   Biso      1.000     C          -0.107177           
         C12       1.0000    0.07430   0.50620   0.96990   Biso      1.000     C          -0.122275           
         C13       1.0000    0.01610   0.95000   0.44870   Biso      1.000     C          -0.11940999999999999          
         C14       1.0000    0.32690   0.91160   0.08270   Biso      1.000     C          -0.126125           
         C15       1.0000    0.09660   0.98220   0.55020   Biso      1.000     C          -0.116646           
         C16       1.0000    0.02290   0.11300   0.64920   Biso      1.000     C          0.661866  
         C17       1.0000    0.36710   0.92580   0.45010   Biso      1.000     C          -0.119591           
         C18       1.0000    0.42570   0.00620   0.46990   Biso      1.000     C          -0.122254           
         C19       1.0000    0.03240   0.04480   0.57560   Biso      1.000     C          -0.128913           
         C20       1.0000    0.41620   0.06360   0.54160   Biso      1.000     C          -0.124306           
         C21       1.0000    0.35560   0.86390   0.15680   Biso      1.000     C          0.659816  
         C22       1.0000    0.36070   0.84760   0.37880   Biso      1.000     C          0.6557    
         C23       1.0000    0.34850   0.02550   0.57580   Biso      1.000     C          -0.142319           
         C24       1.0000    0.25430   0.90510   0.05370   Biso      1.000     C          -0.102941           
         C25       1.0000    0.25210   0.95990   0.98100   Biso      1.000     C          -0.12071400000000002          
         C26       1.0000    0.13290   0.42580   0.95010   Biso      1.000     C          -0.11956900000000001          
         C27       1.0000    0.40340   0.48220   0.05020   Biso      1.000     C          -0.11663699999999999          
         C28       1.0000    0.58630   0.57050   0.47790   Biso      1.000     C          -0.107177           
         C29       1.0000    0.51610   0.55000   0.44870   Biso      1.000     C          -0.11940999999999999          
         C30       1.0000    0.75430   0.59490   0.05370   Biso      1.000     C          -0.10295  
         C31       1.0000    0.82690   0.58840   0.08270   Biso      1.000     C          -0.126116           
         C32       1.0000    0.59660   0.51780   0.55020   Biso      1.000     C          -0.116646           
         C33       1.0000    0.52290   0.38700   0.64920   Biso      1.000     C          0.661866  
         C34       1.0000    0.86710   0.57420   0.45010   Biso      1.000     C          -0.119591           
         C35       1.0000    0.92570   0.49380   0.46990   Biso      1.000     C          -0.122254           
         C36       1.0000    0.53240   0.45520   0.57560   Biso      1.000     C          -0.128913           
         C37       1.0000    0.91620   0.43640   0.54160   Biso      1.000     C          -0.124306           
         C38       1.0000    0.47710   0.61300   0.14920   Biso      1.000     C          0.661867  
         C39       1.0000    0.85560   0.63610   0.15680   Biso      1.000     C          0.6598149999999999  
         C40       1.0000    0.84850   0.47450   0.57580   Biso      1.000     C          -0.142319           
         C41       1.0000    0.75210   0.54010   0.98100   Biso      1.000     C          -0.12071300000000001          
         C42       1.0000    0.82010   0.49570   0.95460   Biso      1.000     C          -0.14133199999999999          
         C43       1.0000    0.83840   0.44100   0.87820   Biso      1.000     C          0.694297  
         C44       1.0000    0.82090   0.43290   0.65100   Biso      1.000     C          0.678708  
         C45       1.0000    0.51590   0.40620   0.87430   Biso      1.000     C          0.661555  
         C46       1.0000    0.41370   0.42950   0.97790   Biso      1.000     C          -0.107176           
         C47       1.0000    0.48390   0.45000   0.94870   Biso      1.000     C          -0.11940999999999999          
         C48       1.0000    0.24570   0.40510   0.55370   Biso      1.000     C          -0.10295  
         C49       1.0000    0.17310   0.41160   0.58270   Biso      1.000     C          -0.126116           
         C50       1.0000    0.86070   0.65240   0.37880   Biso      1.000     C          0.6557    
         C51       1.0000    0.32010   0.00430   0.95460   Biso      1.000     C          -0.14133199999999999          
         C52       1.0000    0.48410   0.59380   0.37430   Biso      1.000     C          0.661555  
         C53       1.0000    0.90340   0.01780   0.05020   Biso      1.000     C          -0.11665  
         C54       1.0000    0.98390   0.05000   0.94870   Biso      1.000     C          -0.119434           
         C55       1.0000    0.67990   0.99570   0.45460   Biso      1.000     C          -0.141351           
         C56       1.0000    0.65150   0.97450   0.07580   Biso      1.000     C          -0.142322           
         C57       1.0000    0.91370   0.07050   0.97790   Biso      1.000     C          -0.107152           
         C58       1.0000    0.74570   0.09490   0.55370   Biso      1.000     C          -0.102952           
         C59       1.0000    0.01590   0.09380   0.87430   Biso      1.000     C          0.661557  
         C60       1.0000    0.67310   0.08840   0.58270   Biso      1.000     C          -0.126116           
         C61       1.0000    0.66160   0.94100   0.37820   Biso      1.000     C          0.694299  
         C62       1.0000    0.64440   0.13610   0.65680   Biso      1.000     C          0.6598149999999999  
         C63       1.0000    0.63930   0.15240   0.87880   Biso      1.000     C          0.655698  
         C64       1.0000    0.97710   0.88700   0.14920   Biso      1.000     C          0.661866  
         C65       1.0000    0.74790   0.04010   0.48100   Biso      1.000     C          -0.12069400000000001          
         C66       1.0000    0.67910   0.93290   0.15100   Biso      1.000     C          0.678708  
         C67       1.0000    0.33840   0.05900   0.87820   Biso      1.000     C          0.694297  
         C68       1.0000    0.57430   0.99380   0.96990   Biso      1.000     C          -0.122276           
         C69       1.0000    0.96760   0.95520   0.07560   Biso      1.000     C          -0.128913           
         C70       1.0000    0.63290   0.07420   0.95010   Biso      1.000     C          -0.11956900000000001          
         C71       1.0000    0.32090   0.06710   0.65100   Biso      1.000     C          0.678708  
         C72       1.0000    0.58380   0.93640   0.04160   Biso      1.000     C          -0.1243   
         H1        1.0000    0.79290   0.03440   0.45280   Biso      1.000     H          0.11575899999999999           
         H2        1.0000    0.70710   0.53440   0.95280   Biso      1.000     H          0.11575999999999999           
         H3        1.0000    0.35820   0.47550   0.07790   Biso      1.000     H          0.12465899999999999           
         H4        1.0000    0.37540   0.38420   0.95200   Biso      1.000     H          0.132529  
         H5        1.0000    0.54860   0.87920   0.06370   Biso      1.000     H          0.12299000000000002           
         H6        1.0000    0.03200   0.52180   0.93890   Biso      1.000     H          0.123029  
         H7        1.0000    0.85820   0.02450   0.07790   Biso      1.000     H          0.12465899999999999           
         H8        1.0000    0.29290   0.46560   0.45280   Biso      1.000     H          0.11575999999999999           
         H9        1.0000    0.53200   0.97820   0.93890   Biso      1.000     H          0.123029  
         H10       1.0000    0.78770   0.13080   0.57890   Biso      1.000     H          0.142208  
         H11       1.0000    0.04860   0.62080   0.06370   Biso      1.000     H          0.12299000000000002           
         H12       1.0000    0.28770   0.36920   0.57890   Biso      1.000     H          0.142208  
         H13       1.0000    0.62460   0.61580   0.45200   Biso      1.000     H          0.132529  
         H14       1.0000    0.64180   0.52450   0.57790   Biso      1.000     H          0.12465899999999999           
         H15       1.0000    0.45140   0.12080   0.56370   Biso      1.000     H          0.12299000000000002           
         H16       1.0000    0.95140   0.37920   0.56370   Biso      1.000     H          0.12299000000000002           
         H17       1.0000    0.46800   0.02180   0.43890   Biso      1.000     H          0.123028  
         H18       1.0000    0.96800   0.47820   0.43890   Biso      1.000     H          0.123028  
         H19       1.0000    0.14180   0.97550   0.57790   Biso      1.000     H          0.12465899999999999           
         H20       1.0000    0.71230   0.63080   0.07890   Biso      1.000     H          0.142208  
         H21       1.0000    0.20710   0.96560   0.95280   Biso      1.000     H          0.11575999999999999           
         H22       1.0000    0.87540   0.11580   0.95200   Biso      1.000     H          0.132527  
         H23       1.0000    0.21230   0.86920   0.07890   Biso      1.000     H          0.142208  
         H24       1.0000    0.12460   0.88420   0.45200   Biso      1.000     H          0.132529  
         O1        1.0000    0.92170   0.89520   0.19530   Biso      1.000     O          -0.686207           
         O2        1.0000    0.08550   0.07130   0.86330   Biso      1.000     O          -0.6445489999999999           
         O3        1.0000    0.58320   0.14740   0.83370   Biso      1.000     O          -0.674379           
         O4        1.0000    0.74760   0.95030   0.16840   Biso      1.000     O          -0.6236   
         O5        1.0000    0.69790   0.22040   0.86810   Biso      1.000     O          -0.584658           
         O6        1.0000    0.71560   0.93680   0.33270   Biso      1.000     O          -0.634985           
         O7        1.0000    0.53000   0.65190   0.32970   Biso      1.000     O          -0.606495           
         O8        1.0000    0.69120   0.19050   0.70140   Biso      1.000     O          -0.596067           
         O9        1.0000    0.80210   0.72040   0.36810   Biso      1.000     O          -0.584657           
         O10       1.0000    0.41450   0.57130   0.36330   Biso      1.000     O          -0.6445489999999999           
         O11       1.0000    0.75240   0.45030   0.66840   Biso      1.000     O          -0.6236   
         O12       1.0000    0.80880   0.69050   0.20140   Biso      1.000     O          -0.596067           
         O13       1.0000    0.63010   0.88040   0.19450   Biso      1.000     O          -0.643406           
         O14       1.0000    0.78440   0.43680   0.83270   Biso      1.000     O          -0.634985           
         O15       1.0000    0.59340   0.91070   0.36480   Biso      1.000     O          -0.63397  
         O16       1.0000    0.46390   0.32390   0.66270   Biso      1.000     O          -0.5804739999999999           
         O17       1.0000    0.86990   0.38040   0.69450   Biso      1.000     O          -0.643406           
         O18       1.0000    0.90660   0.41070   0.86480   Biso      1.000     O          -0.63397  
         O19       1.0000    0.57420   0.11630   0.67030   Biso      1.000     O          -0.662495           
         O20       1.0000    0.91680   0.64740   0.33370   Biso      1.000     O          -0.674379           
         O21       1.0000    0.57830   0.39520   0.69530   Biso      1.000     O          -0.686207           
         O22       1.0000    0.92580   0.61630   0.17030   Biso      1.000     O          -0.662495           
         O23       1.0000    0.40660   0.08930   0.86480   Biso      1.000     O          -0.63397  
         O24       1.0000    0.58550   0.42870   0.86330   Biso      1.000     O          -0.6445489999999999           
         O25       1.0000    0.30210   0.77960   0.36810   Biso      1.000     O          -0.584657           
         O26       1.0000    0.96390   0.17610   0.66270   Biso      1.000     O          -0.5804739999999999           
         O27       1.0000    0.25240   0.04970   0.66840   Biso      1.000     O          -0.6236   
         O28       1.0000    0.91450   0.92870   0.36330   Biso      1.000     O          -0.6445489999999999           
         O29       1.0000    0.07830   0.10480   0.69530   Biso      1.000     O          -0.686207           
         O30       1.0000    0.28440   0.06320   0.83270   Biso      1.000     O          -0.634985           
         O31       1.0000    0.42580   0.88370   0.17030   Biso      1.000     O          -0.662495           
         O32       1.0000    0.03000   0.84810   0.32970   Biso      1.000     O          -0.606494           
         O33       1.0000    0.97000   0.15190   0.82970   Biso      1.000     O          -0.606495           
         O34       1.0000    0.47000   0.34810   0.82970   Biso      1.000     O          -0.606494           
         O35       1.0000    0.42170   0.60480   0.19530   Biso      1.000     O          -0.686207           
         O36       1.0000    0.41680   0.85260   0.33370   Biso      1.000     O          -0.674379           
         O37       1.0000    0.24760   0.54970   0.16840   Biso      1.000     O          -0.6236   
         O38       1.0000    0.19790   0.27960   0.86810   Biso      1.000     O          -0.584658           
         O39       1.0000    0.30880   0.80950   0.20140   Biso      1.000     O          -0.596067           
         O40       1.0000    0.21560   0.56320   0.33270   Biso      1.000     O          -0.634985           
         O41       1.0000    0.13010   0.61960   0.19450   Biso      1.000     O          -0.643406           
         O42       1.0000    0.09340   0.58930   0.36480   Biso      1.000     O          -0.63397  
         O43       1.0000    0.07420   0.38370   0.67030   Biso      1.000     O          -0.662495           
         O44       1.0000    0.19120   0.30950   0.70140   Biso      1.000     O          -0.596067           
         O45       1.0000    0.08320   0.35260   0.83370   Biso      1.000     O          -0.674379           
         O46       1.0000    0.03610   0.82390   0.16270   Biso      1.000     O          -0.5804739999999999           
         O47       1.0000    0.53610   0.67610   0.16270   Biso      1.000     O          -0.5804739999999999           
         O48       1.0000    0.36990   0.11960   0.69450   Biso      1.000     O          -0.643406           
         S1        1.0000    0.04062   0.96204   0.01107   Biso      1.000     S          0.159026  
         S2        1.0000    0.38971   0.98403   0.02150   Biso      1.000     S          0.174973  
         S3        1.0000    0.95938   0.03796   0.51107   Biso      1.000     S          0.159023  
         S4        1.0000    0.45938   0.46204   0.51107   Biso      1.000     S          0.159023  
         S5        1.0000    0.11029   0.48403   0.52150   Biso      1.000     S          0.17497200000000002           
         S6        1.0000    0.70226   0.07861   0.01865   Biso      1.000     S          0.179751  
         S7        1.0000    0.88971   0.51597   0.02150   Biso      1.000     S          0.17497200000000002           
         S8        1.0000    0.29774   0.92139   0.51865   Biso      1.000     S          0.179753  
         S9        1.0000    0.20226   0.42139   0.01865   Biso      1.000     S          0.179751  
         S10       1.0000    0.79774   0.57861   0.51865   Biso      1.000     S          0.179753  
         S11       1.0000    0.54062   0.53796   0.01107   Biso      1.000     S          0.159025  
         S12       1.0000    0.61029   0.01597   0.52150   Biso      1.000     S          0.174974  
         Y1        1.0000    0.52110   0.84112   0.25859   Biso      1.000     Y          1.8836490000000001  
         Y2        1.0000    0.32157   0.61930   0.27247   Biso      1.000     Y          1.872496  
         Y3        1.0000    0.17843   0.11930   0.77247   Biso      1.000     Y          1.872496  
         Y4        1.0000    0.02110   0.65888   0.25859   Biso      1.000     Y          1.8836490000000001  
         Y5        1.0000    0.97890   0.34112   0.75859   Biso      1.000     Y          1.8836490000000001  
         Y6        1.0000    0.67843   0.38070   0.77247   Biso      1.000     Y          1.872496  
         Y7        1.0000    0.47890   0.15888   0.75859   Biso      1.000     Y          1.8836490000000001  
         Y8        1.0000    0.82157   0.88070   0.27247   Biso      1.000     Y          1.872496 