
##########################################################################
#               Crystallographic Information Format file
#               Produced by PyCifRW module
#
#  This is a CIF file.  CIF has been adopted by the International
#  Union of Crystallography as the standard for data archiving and
#  transmission.
#
#  For information on this file format, follow the CIF links at
#  http://www.iucr.org
##########################################################################

data_image0

_cell_length_a                          17.2619
_cell_length_b                          10.0391
_cell_length_c                          17.5996
_cell_angle_alpha                       90
_cell_angle_beta                        90
_cell_angle_gamma                       90
_symmetry_space_group_name_H-M          'P 1'
_symmetry_int_tables_number             1
loop_
  _symmetry_equiv_pos_as_xyz
         'x, y, z' 
loop_
  _atom_site_label
  _atom_site_occupancy
  _atom_site_fract_x
  _atom_site_fract_y
  _atom_site_fract_z
  _atom_site_thermal_displace_type
  _atom_site_B_iso_or_equiv
  _atom_site_type_symbol
  _atom_site_charge
         C1        1.0000    0.98710   0.90830   0.37190   Biso      1.000     C          0.691496  
         C2        1.0000    0.46530   0.54770   0.07380   Biso      1.000     C          -0.120749           
         C3        1.0000    0.08420   0.56340   0.04260   Biso      1.000     C          -0.126993           
         C4        1.0000    0.14670   0.36100   0.65910   Biso      1.000     C          0.682475  
         C5        1.0000    0.13790   0.34110   0.87980   Biso      1.000     C          0.68369   
         C6        1.0000    0.15020   0.51980   0.07720   Biso      1.000     C          -0.12955  
         C7        1.0000    0.25020   0.44750   0.47780   Biso      1.000     C          -0.121263           
         C8        1.0000    0.17990   0.49510   0.45380   Biso      1.000     C          -0.137901           
         C9        1.0000    0.16140   0.54940   0.37760   Biso      1.000     C          0.714222  
         C10       1.0000    0.17970   0.56100   0.15290   Biso      1.000     C          0.690991  
         C11       1.0000    0.09160   0.93200   0.47490   Biso      1.000     C          -0.107351           
         C12       1.0000    0.07400   0.50390   0.97030   Biso      1.000     C          -0.117853           
         C13       1.0000    0.02000   0.95390   0.44560   Biso      1.000     C          -0.11793  
         C14       1.0000    0.32490   0.90530   0.08320   Biso      1.000     C          -0.118279           
         C15       1.0000    0.10130   0.98640   0.54900   Biso      1.000     C          -0.116993           
         C16       1.0000    0.02400   0.11500   0.64730   Biso      1.000     C          0.676735  
         C17       1.0000    0.36860   0.91910   0.45080   Biso      1.000     C          -0.110939           
         C18       1.0000    0.42600   0.00390   0.47030   Biso      1.000     C          -0.117831           
         C19       1.0000    0.03470   0.04770   0.57380   Biso      1.000     C          -0.120744           
         C20       1.0000    0.41580   0.06340   0.54260   Biso      1.000     C          -0.126996           
         C21       1.0000    0.35330   0.86100   0.15910   Biso      1.000     C          0.682476  
         C22       1.0000    0.36210   0.84110   0.37980   Biso      1.000     C          0.683692  
         C23       1.0000    0.34980   0.01980   0.57720   Biso      1.000     C          -0.12955  
         C24       1.0000    0.25240   0.89440   0.05290   Biso      1.000     C          -0.102437           
         C25       1.0000    0.24980   0.94750   0.97780   Biso      1.000     C          -0.121263           
         C26       1.0000    0.13140   0.41910   0.95080   Biso      1.000     C          -0.110917           
         C27       1.0000    0.39870   0.48640   0.04900   Biso      1.000     C          -0.116989           
         C28       1.0000    0.59160   0.56800   0.47490   Biso      1.000     C          -0.107351           
         C29       1.0000    0.52000   0.54610   0.44560   Biso      1.000     C          -0.11793  
         C30       1.0000    0.75240   0.60560   0.05290   Biso      1.000     C          -0.102444           
         C31       1.0000    0.82490   0.59470   0.08320   Biso      1.000     C          -0.118272           
         C32       1.0000    0.60130   0.51360   0.54900   Biso      1.000     C          -0.116993           
         C33       1.0000    0.52400   0.38500   0.64730   Biso      1.000     C          0.676735  
         C34       1.0000    0.86860   0.58090   0.45080   Biso      1.000     C          -0.110939           
         C35       1.0000    0.92600   0.49610   0.47030   Biso      1.000     C          -0.117831           
         C36       1.0000    0.53470   0.45230   0.57380   Biso      1.000     C          -0.120744           
         C37       1.0000    0.91580   0.43660   0.54260   Biso      1.000     C          -0.126996           
         C38       1.0000    0.47600   0.61500   0.14730   Biso      1.000     C          0.676735  
         C39       1.0000    0.85330   0.63900   0.15910   Biso      1.000     C          0.682475  
         C40       1.0000    0.84980   0.48020   0.57720   Biso      1.000     C          -0.129549           
         C41       1.0000    0.74980   0.55250   0.97780   Biso      1.000     C          -0.121263           
         C42       1.0000    0.82010   0.50490   0.95380   Biso      1.000     C          -0.137902           
         C43       1.0000    0.83860   0.45060   0.87760   Biso      1.000     C          0.714222  
         C44       1.0000    0.82030   0.43900   0.65290   Biso      1.000     C          0.690991  
         C45       1.0000    0.51290   0.40830   0.87190   Biso      1.000     C          0.691496  
         C46       1.0000    0.40840   0.43200   0.97490   Biso      1.000     C          -0.107351           
         C47       1.0000    0.48000   0.45390   0.94560   Biso      1.000     C          -0.11793  
         C48       1.0000    0.24760   0.39440   0.55290   Biso      1.000     C          -0.102443           
         C49       1.0000    0.17510   0.40530   0.58320   Biso      1.000     C          -0.118271           
         C50       1.0000    0.86210   0.65890   0.37980   Biso      1.000     C          0.683692  
         C51       1.0000    0.32010   0.99510   0.95380   Biso      1.000     C          -0.137901           
         C52       1.0000    0.48710   0.59170   0.37190   Biso      1.000     C          0.691496  
         C53       1.0000    0.89870   0.01360   0.04900   Biso      1.000     C          -0.116995           
         C54       1.0000    0.98000   0.04610   0.94560   Biso      1.000     C          -0.117945           
         C55       1.0000    0.67990   0.00490   0.45380   Biso      1.000     C          -0.137907           
         C56       1.0000    0.65020   0.98020   0.07720   Biso      1.000     C          -0.129559           
         C57       1.0000    0.90840   0.06800   0.97490   Biso      1.000     C          -0.107337           
         C58       1.0000    0.74760   0.10560   0.55290   Biso      1.000     C          -0.102444           
         C59       1.0000    0.01290   0.09170   0.87190   Biso      1.000     C          0.691498  
         C60       1.0000    0.67510   0.09470   0.58320   Biso      1.000     C          -0.118271           
         C61       1.0000    0.66140   0.95060   0.37760   Biso      1.000     C          0.714223  
         C62       1.0000    0.64670   0.13900   0.65910   Biso      1.000     C          0.682475  
         C63       1.0000    0.63790   0.15890   0.87980   Biso      1.000     C          0.68369   
         C64       1.0000    0.97600   0.88500   0.14730   Biso      1.000     C          0.676735  
         C65       1.0000    0.75020   0.05250   0.47780   Biso      1.000     C          -0.121258           
         C66       1.0000    0.67970   0.93900   0.15290   Biso      1.000     C          0.690992  
         C67       1.0000    0.33860   0.04940   0.87760   Biso      1.000     C          0.714222  
         C68       1.0000    0.57400   0.99610   0.97030   Biso      1.000     C          -0.117854           
         C69       1.0000    0.96530   0.95230   0.07380   Biso      1.000     C          -0.120744           
         C70       1.0000    0.63140   0.08090   0.95080   Biso      1.000     C          -0.110917           
         C71       1.0000    0.32030   0.06100   0.65290   Biso      1.000     C          0.690991  
         C72       1.0000    0.58420   0.93660   0.04260   Biso      1.000     C          -0.126984           
         H1        1.0000    0.79480   0.05040   0.44830   Biso      1.000     H          0.117527  
         H2        1.0000    0.70520   0.55040   0.94830   Biso      1.000     H          0.117528  
         H3        1.0000    0.35320   0.48100   0.07710   Biso      1.000     H          0.127407  
         H4        1.0000    0.36960   0.38620   0.94910   Biso      1.000     H          0.1375    
         H5        1.0000    0.55010   0.87530   0.06390   Biso      1.000     H          0.124616  
         H6        1.0000    0.03170   0.52150   0.93920   Biso      1.000     H          0.123781  
         H7        1.0000    0.85320   0.01900   0.07710   Biso      1.000     H          0.127407  
         H8        1.0000    0.29480   0.44960   0.44830   Biso      1.000     H          0.117528  
         H9        1.0000    0.53170   0.97850   0.93920   Biso      1.000     H          0.123781  
         H10       1.0000    0.78980   0.14280   0.57800   Biso      1.000     H          0.144007  
         H11       1.0000    0.05010   0.62470   0.06390   Biso      1.000     H          0.124616  
         H12       1.0000    0.28980   0.35720   0.57800   Biso      1.000     H          0.144007  
         H13       1.0000    0.63040   0.61380   0.44910   Biso      1.000     H          0.1375    
         H14       1.0000    0.64680   0.51900   0.57710   Biso      1.000     H          0.127407  
         H15       1.0000    0.44990   0.12470   0.56390   Biso      1.000     H          0.124616  
         H16       1.0000    0.94990   0.37530   0.56390   Biso      1.000     H          0.124617  
         H17       1.0000    0.46830   0.02150   0.43920   Biso      1.000     H          0.12378   
         H18       1.0000    0.96830   0.47850   0.43920   Biso      1.000     H          0.12378   
         H19       1.0000    0.14680   0.98100   0.57710   Biso      1.000     H          0.127407  
         H20       1.0000    0.71020   0.64280   0.07800   Biso      1.000     H          0.144007  
         H21       1.0000    0.20520   0.94960   0.94830   Biso      1.000     H          0.117528  
         H22       1.0000    0.86960   0.11380   0.94910   Biso      1.000     H          0.137499  
         H23       1.0000    0.21020   0.85720   0.07800   Biso      1.000     H          0.144007  
         H24       1.0000    0.13040   0.88620   0.44910   Biso      1.000     H          0.1375    
         O1        1.0000    0.92080   0.89710   0.19510   Biso      1.000     O          -0.76598  
         O2        1.0000    0.08290   0.06870   0.86050   Biso      1.000     O          -0.705276           
         O3        1.0000    0.58210   0.15040   0.83350   Biso      1.000     O          -0.755829           
         O4        1.0000    0.74910   0.96230   0.16940   Biso      1.000     O          -0.668454           
         O5        1.0000    0.69620   0.23030   0.86900   Biso      1.000     O          -0.629449           
         O6        1.0000    0.71560   0.94800   0.33140   Biso      1.000     O          -0.702688           
         O7        1.0000    0.53330   0.65190   0.32720   Biso      1.000     O          -0.66041  
         O8        1.0000    0.69430   0.19580   0.70310   Biso      1.000     O          -0.640602           
         O9        1.0000    0.80380   0.73030   0.36900   Biso      1.000     O          -0.629448           
         O10       1.0000    0.41710   0.56870   0.36050   Biso      1.000     O          -0.705276           
         O11       1.0000    0.75090   0.46230   0.66940   Biso      1.000     O          -0.668455           
         O12       1.0000    0.80570   0.69580   0.20310   Biso      1.000     O          -0.640602           
         O13       1.0000    0.63170   0.88030   0.19620   Biso      1.000     O          -0.709997           
         O14       1.0000    0.78440   0.44800   0.83140   Biso      1.000     O          -0.702688           
         O15       1.0000    0.59210   0.91630   0.36350   Biso      1.000     O          -0.695365           
         O16       1.0000    0.46400   0.31990   0.66060   Biso      1.000     O          -0.614968           
         O17       1.0000    0.86830   0.38030   0.69620   Biso      1.000     O          -0.709997           
         O18       1.0000    0.90790   0.41630   0.86350   Biso      1.000     O          -0.695365           
         O19       1.0000    0.57560   0.11860   0.67230   Biso      1.000     O          -0.724507           
         O20       1.0000    0.91790   0.65040   0.33350   Biso      1.000     O          -0.755829           
         O21       1.0000    0.57920   0.39710   0.69510   Biso      1.000     O          -0.76598  
         O22       1.0000    0.92440   0.61860   0.17230   Biso      1.000     O          -0.724507           
         O23       1.0000    0.40790   0.08370   0.86350   Biso      1.000     O          -0.695365           
         O24       1.0000    0.58290   0.43130   0.86050   Biso      1.000     O          -0.705276           
         O25       1.0000    0.30380   0.76970   0.36900   Biso      1.000     O          -0.629448           
         O26       1.0000    0.96400   0.18010   0.66060   Biso      1.000     O          -0.614968           
         O27       1.0000    0.25090   0.03770   0.66940   Biso      1.000     O          -0.668454           
         O28       1.0000    0.91710   0.93130   0.36050   Biso      1.000     O          -0.705276           
         O29       1.0000    0.07920   0.10290   0.69510   Biso      1.000     O          -0.76598  
         O30       1.0000    0.28440   0.05200   0.83140   Biso      1.000     O          -0.702688           
         O31       1.0000    0.42440   0.88140   0.17230   Biso      1.000     O          -0.724507           
         O32       1.0000    0.03330   0.84810   0.32720   Biso      1.000     O          -0.66041  
         O33       1.0000    0.96670   0.15190   0.82720   Biso      1.000     O          -0.66041  
         O34       1.0000    0.46670   0.34810   0.82720   Biso      1.000     O          -0.66041  
         O35       1.0000    0.42080   0.60290   0.19510   Biso      1.000     O          -0.76598  
         O36       1.0000    0.41790   0.84960   0.33350   Biso      1.000     O          -0.755829           
         O37       1.0000    0.24910   0.53770   0.16940   Biso      1.000     O          -0.668454           
         O38       1.0000    0.19620   0.26970   0.86900   Biso      1.000     O          -0.629448           
         O39       1.0000    0.30570   0.80420   0.20310   Biso      1.000     O          -0.640602           
         O40       1.0000    0.21560   0.55200   0.33140   Biso      1.000     O          -0.702688           
         O41       1.0000    0.13170   0.61970   0.19620   Biso      1.000     O          -0.709997           
         O42       1.0000    0.09210   0.58370   0.36350   Biso      1.000     O          -0.695365           
         O43       1.0000    0.07560   0.38140   0.67230   Biso      1.000     O          -0.724507           
         O44       1.0000    0.19430   0.30420   0.70310   Biso      1.000     O          -0.640602           
         O45       1.0000    0.08210   0.34960   0.83350   Biso      1.000     O          -0.755829           
         O46       1.0000    0.03600   0.81990   0.16060   Biso      1.000     O          -0.614968           
         O47       1.0000    0.53600   0.68010   0.16060   Biso      1.000     O          -0.614968           
         O48       1.0000    0.36830   0.11970   0.69620   Biso      1.000     O          -0.709997           
         S1        1.0000    0.03828   0.95890   0.00787   Biso      1.000     S          0.167462  
         S2        1.0000    0.38986   0.97950   0.02289   Biso      1.000     S          0.184217  
         S3        1.0000    0.96172   0.04110   0.50787   Biso      1.000     S          0.167461  
         S4        1.0000    0.46172   0.45890   0.50787   Biso      1.000     S          0.167461  
         S5        1.0000    0.11014   0.47950   0.52289   Biso      1.000     S          0.184216  
         S6        1.0000    0.70067   0.09240   0.02162   Biso      1.000     S          0.171104  
         S7        1.0000    0.88986   0.52050   0.02289   Biso      1.000     S          0.184216  
         S8        1.0000    0.29933   0.90760   0.52162   Biso      1.000     S          0.171105  
         S9        1.0000    0.20067   0.40760   0.02162   Biso      1.000     S          0.171103  
         S10       1.0000    0.79933   0.59240   0.52162   Biso      1.000     S          0.171105  
         S11       1.0000    0.53828   0.54110   0.00787   Biso      1.000     S          0.167461  
         S12       1.0000    0.61014   0.02050   0.52289   Biso      1.000     S          0.184216  
         Tm1       1.0000    0.52152   0.84050   0.25798   Biso      1.000     Tm          2.135551  
         Tm2       1.0000    0.32167   0.61279   0.27328   Biso      1.000     Tm          2.128958  
         Tm3       1.0000    0.17833   0.11279   0.77328   Biso      1.000     Tm          2.128958  
         Tm4       1.0000    0.02152   0.65950   0.25798   Biso      1.000     Tm          2.135551  
         Tm5       1.0000    0.97848   0.34050   0.75798   Biso      1.000     Tm          2.135551  
         Tm6       1.0000    0.67833   0.38721   0.77328   Biso      1.000     Tm          2.128958  
         Tm7       1.0000    0.47848   0.15950   0.75798   Biso      1.000     Tm          2.135551  
         Tm8       1.0000    0.82167   0.88721   0.27328   Biso      1.000     Tm          2.128957 