
##########################################################################
#               Crystallographic Information Format file
#               Produced by PyCifRW module
#
#  This is a CIF file.  CIF has been adopted by the International
#  Union of Crystallography as the standard for data archiving and
#  transmission.
#
#  For information on this file format, follow the CIF links at
#  http://www.iucr.org
##########################################################################

data_image0

_cell_length_a                          13.822
_cell_length_b                          13.822
_cell_length_c                          19.808
_cell_angle_alpha                       90
_cell_angle_beta                        90
_cell_angle_gamma                       120
_symmetry_space_group_name_H-M          'P 1'
_symmetry_int_tables_number             1
loop_
  _symmetry_equiv_pos_as_xyz
         'x, y, z' 
loop_
  _atom_site_label
  _atom_site_occupancy
  _atom_site_fract_x
  _atom_site_fract_y
  _atom_site_fract_z
  _atom_site_thermal_displace_type
  _atom_site_B_iso_or_equiv
  _atom_site_type_symbol
  _atom_site_charge
         C1        1.0000    0.29200   0.75400   0.12520   Biso      1.000     C          0.218394  
         C2        1.0000    0.24600   0.53800   0.37480   Biso      1.000     C          0.218432  
         C3        1.0000    0.61740   0.76920   0.51020   Biso      1.000     C          0.008902  
         C4        1.0000    0.56990   0.85030   0.62320   Biso      1.000     C          0.230033  
         C5        1.0000    0.53720   0.63770   0.61830   Biso      1.000     C          0.041573  
         C6        1.0000    0.29200   0.75400   0.37480   Biso      1.000     C          0.218394  
         C7        1.0000    0.15180   0.38260   0.51020   Biso      1.000     C          0.008896  
         C8        1.0000    0.28040   0.43010   0.62320   Biso      1.000     C          0.230039  
         C9        1.0000    0.10050   0.46280   0.61830   Biso      1.000     C          0.041569  
         C10       1.0000    0.53800   0.29200   0.87480   Biso      1.000     C          0.218407  
         C11       1.0000    0.36230   0.89950   0.61830   Biso      1.000     C          0.041561  
         C12       1.0000    0.76920   0.15180   0.01020   Biso      1.000     C          0.008902  
         C13       1.0000    0.63770   0.10050   0.11830   Biso      1.000     C          0.041561  
         C14       1.0000    0.75400   0.46200   0.87480   Biso      1.000     C          0.218432  
         C15       1.0000    0.38260   0.23080   0.01020   Biso      1.000     C          0.008901  
         C16       1.0000    0.43010   0.14970   0.12320   Biso      1.000     C          0.230033  
         C17       1.0000    0.46280   0.36230   0.11830   Biso      1.000     C          0.041573  
         C18       1.0000    0.70800   0.24600   0.87480   Biso      1.000     C          0.218394  
         C19       1.0000    0.84820   0.61740   0.01020   Biso      1.000     C          0.008895  
         C20       1.0000    0.71960   0.56990   0.12320   Biso      1.000     C          0.23004   
         C21       1.0000    0.89950   0.53720   0.11830   Biso      1.000     C          0.041568  
         C22       1.0000    0.85030   0.28040   0.12320   Biso      1.000     C          0.230039  
         C23       1.0000    0.14970   0.71960   0.62320   Biso      1.000     C          0.230039  
         C24       1.0000    0.23080   0.84820   0.51020   Biso      1.000     C          0.008902  
         C25       1.0000    0.46200   0.70800   0.37480   Biso      1.000     C          0.218407  
         C26       1.0000    0.10050   0.46280   0.88170   Biso      1.000     C          0.041569  
         C27       1.0000    0.28040   0.43010   0.87680   Biso      1.000     C          0.230039  
         C28       1.0000    0.15180   0.38260   0.98980   Biso      1.000     C          0.008896  
         C29       1.0000    0.53720   0.63770   0.88170   Biso      1.000     C          0.041573  
         C30       1.0000    0.56990   0.85030   0.87680   Biso      1.000     C          0.230033  
         C31       1.0000    0.61740   0.76920   0.98980   Biso      1.000     C          0.008902  
         C32       1.0000    0.24600   0.53800   0.12520   Biso      1.000     C          0.218432  
         C33       1.0000    0.36230   0.89950   0.88170   Biso      1.000     C          0.041561  
         C34       1.0000    0.14970   0.71960   0.87680   Biso      1.000     C          0.230039  
         C35       1.0000    0.23080   0.84820   0.98980   Biso      1.000     C          0.008902  
         C36       1.0000    0.46200   0.70800   0.12520   Biso      1.000     C          0.218407  
         C37       1.0000    0.89950   0.53720   0.38170   Biso      1.000     C          0.041569  
         C38       1.0000    0.71960   0.56990   0.37680   Biso      1.000     C          0.23004   
         C39       1.0000    0.84820   0.61740   0.48980   Biso      1.000     C          0.008896  
         C40       1.0000    0.70800   0.24600   0.62520   Biso      1.000     C          0.218394  
         C41       1.0000    0.46280   0.36230   0.38170   Biso      1.000     C          0.041573  
         C42       1.0000    0.43010   0.14970   0.37680   Biso      1.000     C          0.230033  
         C43       1.0000    0.38260   0.23080   0.48980   Biso      1.000     C          0.008901  
         C44       1.0000    0.75400   0.46200   0.62520   Biso      1.000     C          0.218432  
         C45       1.0000    0.63770   0.10050   0.38170   Biso      1.000     C          0.041561  
         C46       1.0000    0.85030   0.28040   0.37680   Biso      1.000     C          0.230039  
         C47       1.0000    0.53800   0.29200   0.62520   Biso      1.000     C          0.218407  
         C48       1.0000    0.76920   0.15180   0.48980   Biso      1.000     C          0.008902  
         Gd1       1.0000    0.67827   0.74624   0.25000   Biso      1.000     Gd          1.822645  
         Gd2       1.0000    0.06797   0.32173   0.25000   Biso      1.000     Gd          1.822653  
         Gd3       1.0000    0.25376   0.93203   0.25000   Biso      1.000     Gd          1.822643  
         Gd4       1.0000    0.32173   0.25376   0.75000   Biso      1.000     Gd          1.82264   
         Gd5       1.0000    0.93203   0.67827   0.75000   Biso      1.000     Gd          1.822651  
         Gd6       1.0000    0.74624   0.06797   0.75000   Biso      1.000     Gd          1.822643  
         N1        1.0000    0.62730   0.92160   0.65970   Biso      1.000     N          -0.515048           
         N2        1.0000    0.92160   0.29430   0.34030   Biso      1.000     N          -0.515052           
         N3        1.0000    0.46680   0.27310   0.66390   Biso      1.000     N          -0.490484           
         N4        1.0000    0.97930   0.58070   0.14990   Biso      1.000     N          -0.363321           
         N5        1.0000    0.90380   0.70320   0.98350   Biso      1.000     N          -0.308732           
         N6        1.0000    0.70570   0.62730   0.15970   Biso      1.000     N          -0.515052           
         N7        1.0000    0.72690   0.19370   0.83610   Biso      1.000     N          -0.490479           
         N8        1.0000    0.41930   0.39860   0.14990   Biso      1.000     N          -0.363321           
         N9        1.0000    0.29680   0.20060   0.98350   Biso      1.000     N          -0.308735           
         N10       1.0000    0.37270   0.07840   0.15970   Biso      1.000     N          -0.515049           
         N11       1.0000    0.80630   0.53320   0.83610   Biso      1.000     N          -0.490486           
         N12       1.0000    0.60140   0.02070   0.14990   Biso      1.000     N          -0.363316           
         N13       1.0000    0.79940   0.09620   0.98350   Biso      1.000     N          -0.308735           
         N14       1.0000    0.92160   0.29430   0.15970   Biso      1.000     N          -0.515052           
         N15       1.0000    0.46680   0.27310   0.83610   Biso      1.000     N          -0.490484           
         N16       1.0000    0.02070   0.41930   0.64990   Biso      1.000     N          -0.36332  
         N17       1.0000    0.09620   0.29680   0.48350   Biso      1.000     N          -0.308733           
         N18       1.0000    0.79940   0.09620   0.51650   Biso      1.000     N          -0.308736           
         N19       1.0000    0.60140   0.02070   0.35010   Biso      1.000     N          -0.363316           
         N20       1.0000    0.29680   0.20060   0.51650   Biso      1.000     N          -0.308735           
         N21       1.0000    0.37270   0.07840   0.34030   Biso      1.000     N          -0.515049           
         N22       1.0000    0.29430   0.37270   0.84030   Biso      1.000     N          -0.515051           
         N23       1.0000    0.27310   0.80630   0.16390   Biso      1.000     N          -0.490479           
         N24       1.0000    0.58070   0.60140   0.85010   Biso      1.000     N          -0.363321           
         N25       1.0000    0.70320   0.79940   0.01650   Biso      1.000     N          -0.308736           
         N26       1.0000    0.62730   0.92160   0.84030   Biso      1.000     N          -0.515048           
         N27       1.0000    0.19370   0.46680   0.16390   Biso      1.000     N          -0.490485           
         N28       1.0000    0.39860   0.97930   0.85010   Biso      1.000     N          -0.363316           
         N29       1.0000    0.80630   0.53320   0.66390   Biso      1.000     N          -0.490486           
         N30       1.0000    0.20060   0.90380   0.01650   Biso      1.000     N          -0.308736           
         N31       1.0000    0.53320   0.72690   0.16390   Biso      1.000     N          -0.490486           
         N32       1.0000    0.97930   0.58070   0.35010   Biso      1.000     N          -0.363321           
         N33       1.0000    0.90380   0.70320   0.51650   Biso      1.000     N          -0.308732           
         N34       1.0000    0.70570   0.62730   0.34030   Biso      1.000     N          -0.515053           
         N35       1.0000    0.72690   0.19370   0.66390   Biso      1.000     N          -0.49048  
         N36       1.0000    0.41930   0.39860   0.35010   Biso      1.000     N          -0.363321           
         N37       1.0000    0.29430   0.37270   0.65970   Biso      1.000     N          -0.515051           
         N38       1.0000    0.07840   0.70570   0.84030   Biso      1.000     N          -0.515052           
         N39       1.0000    0.27310   0.80630   0.33610   Biso      1.000     N          -0.490479           
         N40       1.0000    0.02070   0.41930   0.85010   Biso      1.000     N          -0.363321           
         N41       1.0000    0.70320   0.79940   0.48350   Biso      1.000     N          -0.308736           
         N42       1.0000    0.58070   0.60140   0.64990   Biso      1.000     N          -0.363321           
         N43       1.0000    0.53320   0.72690   0.33610   Biso      1.000     N          -0.490486           
         N44       1.0000    0.07840   0.70570   0.65970   Biso      1.000     N          -0.515052           
         N45       1.0000    0.09620   0.29680   0.01650   Biso      1.000     N          -0.308733           
         N46       1.0000    0.39860   0.97930   0.64990   Biso      1.000     N          -0.363316           
         N47       1.0000    0.19370   0.46680   0.33610   Biso      1.000     N          -0.490485           
         N48       1.0000    0.20060   0.90380   0.48350   Biso      1.000     N          -0.308736           
         Re1       1.0000    0.66667   0.33334   0.94452   Biso      1.000     Re          -0.080865           
         Re2       1.0000    0.46642   0.71384   0.56029   Biso      1.000     Re          0.009772  
         Re3       1.0000    0.24742   0.53358   0.56029   Biso      1.000     Re          0.009803  
         Re4       1.0000    0.71384   0.24742   0.06029   Biso      1.000     Re          0.009767  
         Re5       1.0000    0.53358   0.28616   0.06029   Biso      1.000     Re          0.009772  
         Re6       1.0000    0.75258   0.46642   0.06029   Biso      1.000     Re          0.009804  
         Re7       1.0000    0.71384   0.24742   0.43971   Biso      1.000     Re          0.009767  
         Re8       1.0000    0.75258   0.46642   0.43971   Biso      1.000     Re          0.009803  
         Re9       1.0000    0.28616   0.75258   0.56029   Biso      1.000     Re          0.009767  
         Re10      1.0000    0.46642   0.71384   0.93971   Biso      1.000     Re          0.009772  
         Re11      1.0000    0.24742   0.53358   0.93971   Biso      1.000     Re          0.009803  
         Re12      1.0000    0.33333   0.66666   0.44452   Biso      1.000     Re          -0.080865           
         Re13      1.0000    0.53358   0.28616   0.43971   Biso      1.000     Re          0.009772  
         Re14      1.0000    0.28616   0.75258   0.93971   Biso      1.000     Re          0.009768  
         Re15      1.0000    0.66667   0.33334   0.55548   Biso      1.000     Re          -0.080864           
         Re16      1.0000    0.33333   0.66666   0.05548   Biso      1.000     Re          -0.080865           
         Se1       1.0000    0.39913   0.54437   0.49037   Biso      1.000     Se          0.234346  
         Se2       1.0000    0.33333   0.66666   0.84617   Biso      1.000     Se          0.150502  
         Se3       1.0000    0.66667   0.33334   0.34617   Biso      1.000     Se          0.150502  
         Se4       1.0000    0.66667   0.33334   0.15383   Biso      1.000     Se          0.150502  
         Se5       1.0000    0.33333   0.66666   0.65383   Biso      1.000     Se          0.150503  
         Se6       1.0000    0.14524   0.60087   0.00963   Biso      1.000     Se          0.234355  
         Se7       1.0000    0.45563   0.85476   0.49037   Biso      1.000     Se          0.234368  
         Se8       1.0000    0.39913   0.54437   0.00963   Biso      1.000     Se          0.234347  
         Se9       1.0000    0.85476   0.39913   0.50963   Biso      1.000     Se          0.234354  
         Se10      1.0000    0.60087   0.45563   0.50963   Biso      1.000     Se          0.234346  
         Se11      1.0000    0.54437   0.14524   0.50963   Biso      1.000     Se          0.234367  
         Se12      1.0000    0.85476   0.39913   0.99037   Biso      1.000     Se          0.234355  
         Se13      1.0000    0.60087   0.45563   0.99037   Biso      1.000     Se          0.234346  
         Se14      1.0000    0.14524   0.60087   0.49037   Biso      1.000     Se          0.234355  
         Se15      1.0000    0.45563   0.85476   0.00963   Biso      1.000     Se          0.234368  
         Se16      1.0000    0.54437   0.14524   0.99037   Biso      1.000     Se          0.234368 