
##########################################################################
#               Crystallographic Information Format file
#               Produced by PyCifRW module
#
#  This is a CIF file.  CIF has been adopted by the International
#  Union of Crystallography as the standard for data archiving and
#  transmission.
#
#  For information on this file format, follow the CIF links at
#  http://www.iucr.org
##########################################################################

data_image0

_cell_length_a                          15.6115
_cell_length_b                          15.6115
_cell_length_c                          15.1842
_cell_angle_alpha                       90
_cell_angle_beta                        90
_cell_angle_gamma                       120
_symmetry_space_group_name_H-M          'P 1'
_symmetry_int_tables_number             1
loop_
  _symmetry_equiv_pos_as_xyz
         'x, y, z' 
loop_
  _atom_site_label
  _atom_site_occupancy
  _atom_site_fract_x
  _atom_site_fract_y
  _atom_site_fract_z
  _atom_site_thermal_displace_type
  _atom_site_B_iso_or_equiv
  _atom_site_type_symbol
  _atom_site_charge
         C1        1.0000    0.89300   0.21530   0.19430   Biso      1.000     C          -0.1383   
         C2        1.0000    0.15932   0.73510   0.19690   Biso      1.000     C          0.139131  
         C3        1.0000    0.13465   0.64697   0.13922   Biso      1.000     C          0.605459  
         C4        1.0000    0.26490   0.84068   0.30310   Biso      1.000     C          0.139131  
         C5        1.0000    0.21530   0.89300   0.30570   Biso      1.000     C          -0.1383   
         C6        1.0000    0.89300   0.67770   0.69430   Biso      1.000     C          -0.13830599999999998          
         C7        1.0000    0.84068   0.57578   0.69690   Biso      1.000     C          0.13912   
         C8        1.0000    0.86535   0.51232   0.63922   Biso      1.000     C          0.605466  
         C9        1.0000    0.51232   0.64697   0.36078   Biso      1.000     C          0.6054609999999999  
         C10       1.0000    0.57578   0.73510   0.30310   Biso      1.000     C          0.139129  
         C11       1.0000    0.10700   0.78470   0.19430   Biso      1.000     C          -0.1383   
         C12       1.0000    0.67770   0.78470   0.30570   Biso      1.000     C          -0.138303           
         C13       1.0000    0.42422   0.26490   0.69690   Biso      1.000     C          0.139129  
         C14       1.0000    0.48768   0.35303   0.63922   Biso      1.000     C          0.6054609999999999  
         C15       1.0000    0.13465   0.48768   0.36078   Biso      1.000     C          0.605466  
         C16       1.0000    0.15932   0.42422   0.30310   Biso      1.000     C          0.139121  
         C17       1.0000    0.78470   0.10700   0.69430   Biso      1.000     C          -0.1383   
         C18       1.0000    0.73510   0.15932   0.69690   Biso      1.000     C          0.139131  
         C19       1.0000    0.64697   0.13465   0.63922   Biso      1.000     C          0.605459  
         C20       1.0000    0.10700   0.32230   0.30570   Biso      1.000     C          -0.13830599999999998          
         C21       1.0000    0.48768   0.13465   0.13922   Biso      1.000     C          0.605466  
         C22       1.0000    0.32230   0.21530   0.69430   Biso      1.000     C          -0.138303           
         C23       1.0000    0.15932   0.42422   0.69690   Biso      1.000     C          0.139121  
         C24       1.0000    0.35303   0.86535   0.36078   Biso      1.000     C          0.605459  
         C25       1.0000    0.35303   0.48768   0.13922   Biso      1.000     C          0.6054609999999999  
         C26       1.0000    0.32230   0.10700   0.19430   Biso      1.000     C          -0.13830599999999998          
         C27       1.0000    0.64697   0.13465   0.36078   Biso      1.000     C          0.605459  
         C28       1.0000    0.78470   0.67770   0.19430   Biso      1.000     C          -0.138303           
         C29       1.0000    0.73510   0.57578   0.19690   Biso      1.000     C          0.139129  
         C30       1.0000    0.64697   0.51232   0.13922   Biso      1.000     C          0.6054609999999999  
         C31       1.0000    0.73510   0.15932   0.30310   Biso      1.000     C          0.139131  
         C32       1.0000    0.78470   0.10700   0.30570   Biso      1.000     C          -0.1383   
         C33       1.0000    0.27014   0.13507   0.25000   Biso      1.000     C          -0.051664           
         C34       1.0000    0.84068   0.26490   0.19690   Biso      1.000     C          0.139131  
         C35       1.0000    0.89300   0.67770   0.30570   Biso      1.000     C          -0.13830599999999998          
         C36       1.0000    0.86535   0.35303   0.13922   Biso      1.000     C          0.605459  
         C37       1.0000    0.42422   0.26490   0.30310   Biso      1.000     C          0.139129  
         C38       1.0000    0.32230   0.21530   0.30570   Biso      1.000     C          -0.138302           
         C39       1.0000    0.67770   0.89300   0.19430   Biso      1.000     C          -0.13830599999999998          
         C40       1.0000    0.57578   0.84068   0.19690   Biso      1.000     C          0.139121  
         C41       1.0000    0.51232   0.86535   0.13922   Biso      1.000     C          0.605466  
         C42       1.0000    0.86535   0.51232   0.36078   Biso      1.000     C          0.605466  
         C43       1.0000    0.84068   0.57578   0.30310   Biso      1.000     C          0.13912   
         C44       1.0000    0.21530   0.32230   0.19430   Biso      1.000     C          -0.138303           
         C45       1.0000    0.26490   0.42422   0.19690   Biso      1.000     C          0.139129  
         C46       1.0000    0.48768   0.35303   0.36078   Biso      1.000     C          0.6054609999999999  
         C47       1.0000    0.13465   0.48768   0.63922   Biso      1.000     C          0.605466  
         C48       1.0000    0.10700   0.32230   0.69430   Biso      1.000     C          -0.13830599999999998          
         C49       1.0000    0.72986   0.86493   0.75000   Biso      1.000     C          -0.051664999999999996         
         C50       1.0000    0.26490   0.42422   0.80310   Biso      1.000     C          0.139129  
         C51       1.0000    0.35303   0.48768   0.86078   Biso      1.000     C          0.6054609999999999  
         C52       1.0000    0.10700   0.78470   0.80570   Biso      1.000     C          -0.1383   
         C53       1.0000    0.15932   0.73510   0.80310   Biso      1.000     C          0.139131  
         C54       1.0000    0.13465   0.64697   0.86078   Biso      1.000     C          0.605459  
         C55       1.0000    0.13507   0.86493   0.25000   Biso      1.000     C          -0.051654           
         C56       1.0000    0.13507   0.27014   0.25000   Biso      1.000     C          -0.051663           
         C57       1.0000    0.32230   0.10700   0.80570   Biso      1.000     C          -0.13830599999999998          
         C58       1.0000    0.42422   0.15932   0.80310   Biso      1.000     C          0.139121  
         C59       1.0000    0.48768   0.13465   0.86078   Biso      1.000     C          0.605466  
         C60       1.0000    0.72986   0.86493   0.25000   Biso      1.000     C          -0.051663           
         C61       1.0000    0.78470   0.67770   0.80570   Biso      1.000     C          -0.138303           
         C62       1.0000    0.73510   0.57578   0.80310   Biso      1.000     C          0.139129  
         C63       1.0000    0.64697   0.51232   0.86078   Biso      1.000     C          0.605462  
         C64       1.0000    0.86493   0.13507   0.25000   Biso      1.000     C          -0.051654           
         C65       1.0000    0.86493   0.72986   0.25000   Biso      1.000     C          -0.051662           
         C66       1.0000    0.89300   0.21530   0.80570   Biso      1.000     C          -0.1383   
         C67       1.0000    0.84068   0.26490   0.80310   Biso      1.000     C          0.139131  
         C68       1.0000    0.86535   0.35303   0.86078   Biso      1.000     C          0.605459  
         C69       1.0000    0.21530   0.32230   0.80570   Biso      1.000     C          -0.13830399999999998          
         C70       1.0000    0.13507   0.27014   0.75000   Biso      1.000     C          -0.051662           
         C71       1.0000    0.42422   0.15932   0.19690   Biso      1.000     C          0.139121  
         C72       1.0000    0.21530   0.89300   0.69430   Biso      1.000     C          -0.1383   
         C73       1.0000    0.13507   0.86493   0.75000   Biso      1.000     C          -0.051654           
         C74       1.0000    0.51232   0.86535   0.86078   Biso      1.000     C          0.605466  
         C75       1.0000    0.57578   0.84068   0.80310   Biso      1.000     C          0.139121  
         C76       1.0000    0.67770   0.78470   0.69430   Biso      1.000     C          -0.138302           
         C77       1.0000    0.57578   0.73510   0.69690   Biso      1.000     C          0.139129  
         C78       1.0000    0.51232   0.64697   0.63922   Biso      1.000     C          0.6054609999999999  
         C79       1.0000    0.67770   0.89300   0.80570   Biso      1.000     C          -0.13830499999999998          
         C80       1.0000    0.27014   0.13507   0.75000   Biso      1.000     C          -0.051663           
         C81       1.0000    0.86493   0.13507   0.75000   Biso      1.000     C          -0.051654           
         C82       1.0000    0.86493   0.72986   0.75000   Biso      1.000     C          -0.051663           
         C83       1.0000    0.26490   0.84068   0.69690   Biso      1.000     C          0.139131  
         C84       1.0000    0.35303   0.86535   0.63922   Biso      1.000     C          0.605459  
         Ce1       1.0000    0.33333   0.66667   0.75000   Biso      1.000     Ce          1.8639580000000002  
         Ce2       1.0000    0.66667   0.33333   0.75000   Biso      1.000     Ce          1.8639580000000002  
         Ce3       1.0000    0.33333   0.66667   0.25000   Biso      1.000     Ce          1.8639580000000002  
         Ce4       1.0000    0.66667   0.33333   0.25000   Biso      1.000     Ce          1.8639580000000002  
         H1        1.0000    0.71090   0.76480   0.34410   Biso      1.000     H          0.126169  
         H2        1.0000    0.89930   0.79860   0.25000   Biso      1.000     H          0.10152   
         H3        1.0000    0.28910   0.05390   0.15590   Biso      1.000     H          0.126168  
         H4        1.0000    0.10070   0.20140   0.75000   Biso      1.000     H          0.10152   
         H5        1.0000    0.79860   0.89930   0.75000   Biso      1.000     H          0.10152   
         H6        1.0000    0.94610   0.71090   0.34410   Biso      1.000     H          0.126168  
         H7        1.0000    0.89930   0.10070   0.25000   Biso      1.000     H          0.101522  
         H8        1.0000    0.28910   0.23520   0.34410   Biso      1.000     H          0.126169  
         H9        1.0000    0.20140   0.10070   0.75000   Biso      1.000     H          0.10152   
         H10       1.0000    0.05390   0.28910   0.34410   Biso      1.000     H          0.126168  
         H11       1.0000    0.89930   0.79860   0.75000   Biso      1.000     H          0.10152   
         H12       1.0000    0.89930   0.10070   0.75000   Biso      1.000     H          0.101523  
         H13       1.0000    0.79860   0.89930   0.25000   Biso      1.000     H          0.10152   
         H14       1.0000    0.10070   0.89930   0.25000   Biso      1.000     H          0.101523  
         H15       1.0000    0.10070   0.20140   0.25000   Biso      1.000     H          0.10152   
         H16       1.0000    0.10070   0.89930   0.75000   Biso      1.000     H          0.101523  
         H17       1.0000    0.76480   0.05390   0.34410   Biso      1.000     H          0.126171  
         H18       1.0000    0.23520   0.94610   0.34410   Biso      1.000     H          0.126171  
         H19       1.0000    0.20140   0.10070   0.25000   Biso      1.000     H          0.101521  
         H20       1.0000    0.94610   0.71090   0.65590   Biso      1.000     H          0.126168  
         H21       1.0000    0.23520   0.28910   0.84410   Biso      1.000     H          0.126169  
         H22       1.0000    0.28910   0.23520   0.65590   Biso      1.000     H          0.126169  
         H23       1.0000    0.71090   0.94610   0.84410   Biso      1.000     H          0.126168  
         H24       1.0000    0.23520   0.28910   0.15590   Biso      1.000     H          0.126169  
         H25       1.0000    0.28910   0.05390   0.84410   Biso      1.000     H          0.126168  
         H26       1.0000    0.76480   0.05390   0.65590   Biso      1.000     H          0.126171  
         H27       1.0000    0.05390   0.28910   0.65590   Biso      1.000     H          0.126168  
         H28       1.0000    0.23520   0.94610   0.65590   Biso      1.000     H          0.126171  
         H29       1.0000    0.71090   0.94610   0.15590   Biso      1.000     H          0.126168  
         H30       1.0000    0.76480   0.71090   0.84410   Biso      1.000     H          0.126169  
         H31       1.0000    0.71090   0.76480   0.65590   Biso      1.000     H          0.126169  
         H32       1.0000    0.94610   0.23520   0.15590   Biso      1.000     H          0.126171  
         H33       1.0000    0.94610   0.23520   0.84410   Biso      1.000     H          0.126171  
         H34       1.0000    0.76480   0.71090   0.15590   Biso      1.000     H          0.126169  
         H35       1.0000    0.05390   0.76480   0.84410   Biso      1.000     H          0.126171  
         H36       1.0000    0.05390   0.76480   0.15590   Biso      1.000     H          0.126171  
         Mg1       1.0000    0.50000   0.50000   0.00000   Biso      1.000     Mg          1.459706  
         Mg2       1.0000    0.50000   0.00000   0.00000   Biso      1.000     Mg          1.459706  
         Mg3       1.0000    0.50000   0.00000   0.50000   Biso      1.000     Mg          1.459708  
         Mg4       1.0000    0.50000   0.50000   0.50000   Biso      1.000     Mg          1.459706  
         Mg5       1.0000    0.00000   0.50000   0.50000   Biso      1.000     Mg          1.459706  
         Mg6       1.0000    0.00000   0.50000   0.00000   Biso      1.000     Mg          1.459708  
         N1        1.0000    0.76299   0.23701   0.75000   Biso      1.000     N          -0.324208           
         N2        1.0000    0.52598   0.76299   0.75000   Biso      1.000     N          -0.32416799999999996          
         N3        1.0000    0.47402   0.23701   0.25000   Biso      1.000     N          -0.32416799999999996          
         N4        1.0000    0.23701   0.47402   0.75000   Biso      1.000     N          -0.324167           
         N5        1.0000    0.76299   0.52598   0.25000   Biso      1.000     N          -0.324167           
         N6        1.0000    0.23701   0.76299   0.75000   Biso      1.000     N          -0.324208           
         N7        1.0000    0.23701   0.47402   0.25000   Biso      1.000     N          -0.324167           
         N8        1.0000    0.76299   0.52598   0.75000   Biso      1.000     N          -0.324167           
         N9        1.0000    0.23701   0.76299   0.25000   Biso      1.000     N          -0.324208           
         N10       1.0000    0.47402   0.23701   0.75000   Biso      1.000     N          -0.32416799999999996          
         N11       1.0000    0.52598   0.76299   0.25000   Biso      1.000     N          -0.32416799999999996          
         N12       1.0000    0.76299   0.23701   0.25000   Biso      1.000     N          -0.324208           
         O1        1.0000    0.38449   0.58007   0.85858   Biso      1.000     O          -0.6247010000000001           
         O2        1.0000    0.94169   0.38839   0.90578   Biso      1.000     O          -0.646179           
         O3        1.0000    0.61551   0.41993   0.85858   Biso      1.000     O          -0.6247010000000001           
         O4        1.0000    0.61161   0.55330   0.90578   Biso      1.000     O          -0.646185           
         O5        1.0000    0.38449   0.80442   0.64142   Biso      1.000     O          -0.624692           
         O6        1.0000    0.38839   0.94169   0.59422   Biso      1.000     O          -0.646179           
         O7        1.0000    0.44670   0.05831   0.90578   Biso      1.000     O          -0.646184           
         O8        1.0000    0.55330   0.94169   0.90578   Biso      1.000     O          -0.646184           
         O9        1.0000    0.41993   0.80442   0.85858   Biso      1.000     O          -0.624704           
         O10       1.0000    0.19558   0.61551   0.85858   Biso      1.000     O          -0.624693           
         O11       1.0000    0.05831   0.61161   0.90578   Biso      1.000     O          -0.646179           
         O12       1.0000    0.38839   0.44670   0.90578   Biso      1.000     O          -0.646185           
         O13       1.0000    0.58007   0.19558   0.85858   Biso      1.000     O          -0.624704           
         O14       1.0000    0.41993   0.61551   0.64142   Biso      1.000     O          -0.6247010000000001           
         O15       1.0000    0.58007   0.19558   0.14142   Biso      1.000     O          -0.624704           
         O16       1.0000    0.44670   0.05831   0.09422   Biso      1.000     O          -0.646184           
         O17       1.0000    0.61551   0.19558   0.35858   Biso      1.000     O          -0.624692           
         O18       1.0000    0.61161   0.05831   0.40578   Biso      1.000     O          -0.646179           
         O19       1.0000    0.61161   0.55330   0.09422   Biso      1.000     O          -0.646185           
         O20       1.0000    0.61551   0.41993   0.14142   Biso      1.000     O          -0.6247010000000001           
         O21       1.0000    0.58007   0.38449   0.35858   Biso      1.000     O          -0.6247010000000001           
         O22       1.0000    0.44670   0.38839   0.40578   Biso      1.000     O          -0.646185           
         O23       1.0000    0.94169   0.38839   0.09422   Biso      1.000     O          -0.646179           
         O24       1.0000    0.80442   0.38449   0.14142   Biso      1.000     O          -0.624693           
         O25       1.0000    0.55330   0.94169   0.09422   Biso      1.000     O          -0.646184           
         O26       1.0000    0.80442   0.41993   0.35858   Biso      1.000     O          -0.6247050000000001           
         O27       1.0000    0.94169   0.55330   0.40578   Biso      1.000     O          -0.646184           
         O28       1.0000    0.41993   0.80442   0.14142   Biso      1.000     O          -0.624704           
         O29       1.0000    0.38839   0.44670   0.09422   Biso      1.000     O          -0.646185           
         O30       1.0000    0.38449   0.58007   0.14142   Biso      1.000     O          -0.6247010000000001           
         O31       1.0000    0.55330   0.61161   0.59422   Biso      1.000     O          -0.646185           
         O32       1.0000    0.38449   0.80442   0.35858   Biso      1.000     O          -0.624692           
         O33       1.0000    0.05831   0.61161   0.09422   Biso      1.000     O          -0.646179           
         O34       1.0000    0.19558   0.61551   0.14142   Biso      1.000     O          -0.624693           
         O35       1.0000    0.41993   0.61551   0.35858   Biso      1.000     O          -0.6247010000000001           
         O36       1.0000    0.55330   0.61161   0.40578   Biso      1.000     O          -0.646185           
         O37       1.0000    0.94169   0.55330   0.59422   Biso      1.000     O          -0.646184           
         O38       1.0000    0.80442   0.41993   0.64142   Biso      1.000     O          -0.6247050000000001           
         O39       1.0000    0.44670   0.38839   0.59422   Biso      1.000     O          -0.646185           
         O40       1.0000    0.19558   0.58007   0.35858   Biso      1.000     O          -0.6247050000000001           
         O41       1.0000    0.05831   0.44670   0.40578   Biso      1.000     O          -0.646184           
         O42       1.0000    0.58007   0.38449   0.64142   Biso      1.000     O          -0.6247010000000001           
         O43       1.0000    0.61161   0.05831   0.59422   Biso      1.000     O          -0.646179           
         O44       1.0000    0.61551   0.19558   0.64142   Biso      1.000     O          -0.624692           
         O45       1.0000    0.05831   0.44670   0.59422   Biso      1.000     O          -0.646184           
         O46       1.0000    0.19558   0.58007   0.64142   Biso      1.000     O          -0.6247050000000001           
         O47       1.0000    0.38839   0.94169   0.40578   Biso      1.000     O          -0.646179           
         O48       1.0000    0.80442   0.38449   0.85858   Biso      1.000     O          -0.624693 