
##########################################################################
#               Crystallographic Information Format file
#               Produced by PyCifRW module
#
#  This is a CIF file.  CIF has been adopted by the International
#  Union of Crystallography as the standard for data archiving and
#  transmission.
#
#  For information on this file format, follow the CIF links at
#  http://www.iucr.org
##########################################################################

data_image0

_cell_length_a                          17.7992
_cell_length_b                          17.7992
_cell_length_c                          12.7145
_cell_angle_alpha                       90
_cell_angle_beta                        90
_cell_angle_gamma                       120
_symmetry_space_group_name_H-M          'P 1'
_symmetry_int_tables_number             1
loop_
  _symmetry_equiv_pos_as_xyz
         'x, y, z' 
loop_
  _atom_site_label
  _atom_site_occupancy
  _atom_site_fract_x
  _atom_site_fract_y
  _atom_site_fract_z
  _atom_site_thermal_displace_type
  _atom_site_B_iso_or_equiv
  _atom_site_type_symbol
  _atom_site_charge
         C1        1.0000    0.45370   0.47270   0.86000   Biso      1.000     C          0.373599  
         C2        1.0000    0.85500   0.30500   0.89800   Biso      1.000     C          0.013781  
         C3        1.0000    0.01900   0.54630   0.86000   Biso      1.000     C          0.37358   
         C4        1.0000    0.97900   0.46100   0.91700   Biso      1.000     C          0.328381  
         C5        1.0000    0.22500   0.72500   0.93100   Biso      1.000     C          0.604974  
         C6        1.0000    0.15150   0.68370   0.86300   Biso      1.000     C          0.018579  
         C7        1.0000    0.90600   0.26200   0.86000   Biso      1.000     C          -0.190571           
         C8        1.0000    0.27600   0.51210   0.33800   Biso      1.000     C          0.592897  
         C9        1.0000    0.92000   0.26700   0.74800   Biso      1.000     C          -0.182342           
         C10       1.0000    0.09520   0.72310   0.81680   Biso      1.000     C          -0.198332           
         C11       1.0000    0.04590   0.76970   0.87070   Biso      1.000     C          -0.226573           
         C12       1.0000    0.97400   0.87600   0.88800   Biso      1.000     C          -0.493006           
         C13       1.0000    0.47270   0.01900   0.36000   Biso      1.000     C          0.373844  
         C14       1.0000    0.87600   0.90200   0.38800   Biso      1.000     C          -0.492816           
         C15       1.0000    0.72400   0.48790   0.83800   Biso      1.000     C          0.592852  
         C16       1.0000    0.89200   0.24700   0.56700   Biso      1.000     C          -0.464219           
         C17       1.0000    0.30500   0.45000   0.39800   Biso      1.000     C          0.013869  
         C18       1.0000    0.76390   0.27600   0.83800   Biso      1.000     C          0.592831  
         C19       1.0000    0.54630   0.52730   0.36000   Biso      1.000     C          0.373734  
         C20       1.0000    0.46780   0.15150   0.36300   Biso      1.000     C          0.018533  
         C21       1.0000    0.72310   0.62790   0.31680   Biso      1.000     C          -0.198381           
         C22       1.0000    0.64400   0.90600   0.36000   Biso      1.000     C          -0.190651           
         C23       1.0000    0.65300   0.92000   0.24800   Biso      1.000     C          -0.181834           
         C24       1.0000    0.64500   0.89200   0.06700   Biso      1.000     C          -0.464184           
         C25       1.0000    0.24700   0.35500   0.06700   Biso      1.000     C          -0.464157           
         C26       1.0000    0.37210   0.09520   0.31680   Biso      1.000     C          -0.198409           
         C27       1.0000    0.27620   0.04590   0.37070   Biso      1.000     C          -0.226662           
         C28       1.0000    0.26700   0.34700   0.24800   Biso      1.000     C          -0.181994           
         C29       1.0000    0.09800   0.97400   0.38800   Biso      1.000     C          -0.492776           
         C30       1.0000    0.26200   0.35600   0.36000   Biso      1.000     C          -0.190644           
         C31       1.0000    0.51800   0.97900   0.41700   Biso      1.000     C          0.327869  
         C32       1.0000    0.68370   0.53220   0.36300   Biso      1.000     C          0.01854   
         C33       1.0000    0.72500   0.50000   0.43100   Biso      1.000     C          0.604874  
         C34       1.0000    0.46100   0.48200   0.41700   Biso      1.000     C          0.32806   
         C35       1.0000    0.69500   0.55000   0.89800   Biso      1.000     C          0.013778  
         C36       1.0000    0.50000   0.22500   0.43100   Biso      1.000     C          0.60496   
         C37       1.0000    0.76970   0.72380   0.37070   Biso      1.000     C          -0.226637           
         C38       1.0000    0.53900   0.51800   0.91700   Biso      1.000     C          0.328259  
         C39       1.0000    0.98100   0.45370   0.36000   Biso      1.000     C          0.37383   
         C40       1.0000    0.45000   0.14500   0.89800   Biso      1.000     C          0.01381   
         C41       1.0000    0.14500   0.69500   0.39800   Biso      1.000     C          0.013917  
         C42       1.0000    0.23610   0.72400   0.33800   Biso      1.000     C          0.592991  
         C43       1.0000    0.52730   0.98100   0.86000   Biso      1.000     C          0.373593  
         C44       1.0000    0.48200   0.02100   0.91700   Biso      1.000     C          0.328401  
         C45       1.0000    0.02100   0.53900   0.41700   Biso      1.000     C          0.327852  
         C46       1.0000    0.50000   0.77500   0.93100   Biso      1.000     C          0.605032  
         C47       1.0000    0.35600   0.09400   0.86000   Biso      1.000     C          -0.190579           
         C48       1.0000    0.34700   0.08000   0.74800   Biso      1.000     C          -0.182368           
         C49       1.0000    0.35500   0.10800   0.56700   Biso      1.000     C          -0.464257           
         C50       1.0000    0.62790   0.90480   0.81680   Biso      1.000     C          -0.19833  
         C51       1.0000    0.72380   0.95410   0.87070   Biso      1.000     C          -0.226573           
         C52       1.0000    0.90200   0.02600   0.88800   Biso      1.000     C          -0.493007           
         C53       1.0000    0.53220   0.84850   0.86300   Biso      1.000     C          0.018584  
         C54       1.0000    0.02600   0.12400   0.38800   Biso      1.000     C          -0.492822           
         C55       1.0000    0.77500   0.27500   0.43100   Biso      1.000     C          0.604896  
         C56       1.0000    0.51210   0.23610   0.83800   Biso      1.000     C          0.592854  
         C57       1.0000    0.27500   0.50000   0.93100   Biso      1.000     C          0.604919  
         C58       1.0000    0.95410   0.23030   0.37070   Biso      1.000     C          -0.226622           
         C59       1.0000    0.31630   0.46780   0.86300   Biso      1.000     C          0.018543  
         C60       1.0000    0.73800   0.64400   0.86000   Biso      1.000     C          -0.190583           
         C61       1.0000    0.90480   0.27690   0.31680   Biso      1.000     C          -0.198401           
         C62       1.0000    0.73300   0.65300   0.74800   Biso      1.000     C          -0.182225           
         C63       1.0000    0.75300   0.64500   0.56700   Biso      1.000     C          -0.464182           
         C64       1.0000    0.84850   0.31630   0.36300   Biso      1.000     C          0.018557  
         C65       1.0000    0.27690   0.37210   0.81680   Biso      1.000     C          -0.19836  
         C66       1.0000    0.23030   0.27620   0.87070   Biso      1.000     C          -0.22662  
         C67       1.0000    0.12400   0.09800   0.88800   Biso      1.000     C          -0.492916           
         C68       1.0000    0.08000   0.73300   0.24800   Biso      1.000     C          -0.181849           
         C69       1.0000    0.55000   0.85500   0.39800   Biso      1.000     C          0.013932  
         C70       1.0000    0.48790   0.76390   0.33800   Biso      1.000     C          0.593067  
         C71       1.0000    0.09400   0.73800   0.36000   Biso      1.000     C          -0.190647           
         C72       1.0000    0.10800   0.75300   0.06700   Biso      1.000     C          -0.464173           
         Ca1       1.0000    0.33333   0.66667   0.13460   Biso      1.000     Ca          1.401898  
         Ca2       1.0000    0.66667   0.33333   0.63460   Biso      1.000     Ca          1.401909  
         Cu1       1.0000    0.55380   0.41700   0.76620   Biso      1.000     Cu          0.897726  
         Cu2       1.0000    0.41710   0.86230   0.00411   Biso      1.000     Cu          0.889396  
         Cu3       1.0000    0.55480   0.41710   0.50411   Biso      1.000     Cu          0.889072  
         Cu4       1.0000    0.58300   0.13680   0.76620   Biso      1.000     Cu          0.897765  
         Cu5       1.0000    0.58290   0.13770   0.50411   Biso      1.000     Cu          0.889026  
         Cu6       1.0000    0.86230   0.44520   0.50411   Biso      1.000     Cu          0.888964  
         Cu7       1.0000    0.41700   0.86320   0.26620   Biso      1.000     Cu          0.897681  
         Cu8       1.0000    0.13680   0.55380   0.26620   Biso      1.000     Cu          0.897567  
         Cu9       1.0000    0.86320   0.44620   0.76620   Biso      1.000     Cu          0.897806  
         Cu10      1.0000    0.44520   0.58290   0.00411   Biso      1.000     Cu          0.889126  
         Cu11      1.0000    0.44620   0.58300   0.26620   Biso      1.000     Cu          0.897902  
         Cu12      1.0000    0.13770   0.55480   0.00411   Biso      1.000     Cu          0.88936   
         H1        1.0000    0.08020   0.78780   0.07620   Biso      1.000     H          0.153457  
         H2        1.0000    0.79970   0.67420   0.88130   Biso      1.000     H          0.126668  
         H3        1.0000    0.71010   0.67320   0.89600   Biso      1.000     H          0.123805  
         H4        1.0000    0.95100   0.32540   0.27590   Biso      1.000     H          0.150304  
         H5        1.0000    0.32150   0.50090   0.79690   Biso      1.000     H          0.126126  
         H6        1.0000    0.86630   0.23430   0.26370   Biso      1.000     H          0.108974  
         H7        1.0000    0.01280   0.28200   0.37530   Biso      1.000     H          0.112888  
         H8        1.0000    0.95740   0.19940   0.30770   Biso      1.000     H          0.129553  
         H9        1.0000    0.03770   0.08740   0.43490   Biso      1.000     H          0.171704  
         H10       1.0000    0.70130   0.54810   0.97620   Biso      1.000     H          0.106712  
         H11       1.0000    0.08070   0.17190   0.36180   Biso      1.000     H          0.163765  
         H12       1.0000    0.99000   0.08950   0.32920   Biso      1.000     H          0.159482  
         H13       1.0000    0.95030   0.03770   0.93490   Biso      1.000     H          0.171726  
         H14       1.0000    0.90880   0.08070   0.86180   Biso      1.000     H          0.163711  
         H15       1.0000    0.90050   0.99000   0.82920   Biso      1.000     H          0.159438  
         H16       1.0000    0.01000   0.91050   0.82920   Biso      1.000     H          0.159431  
         H17       1.0000    0.91930   0.82810   0.86180   Biso      1.000     H          0.16372   
         H18       1.0000    0.63200   0.86630   0.76370   Biso      1.000     H          0.109004  
         H19       1.0000    0.04260   0.80060   0.80770   Biso      1.000     H          0.129467  
         H20       1.0000    0.98720   0.71800   0.87530   Biso      1.000     H          0.11289   
         H21       1.0000    0.13370   0.76570   0.76370   Biso      1.000     H          0.109006  
         H22       1.0000    0.04900   0.67460   0.77590   Biso      1.000     H          0.150301  
         H23       1.0000    0.91980   0.21220   0.57620   Biso      1.000     H          0.153634  
         H24       1.0000    0.83170   0.21430   0.59240   Biso      1.000     H          0.183174  
         H25       1.0000    0.89180   0.26080   0.49240   Biso      1.000     H          0.150926  
         H26       1.0000    0.78050   0.64540   0.71990   Biso      1.000     H          0.1181    
         H27       1.0000    0.96260   0.24680   0.73890   Biso      1.000     H          0.11012   
         H28       1.0000    0.75320   0.71580   0.73890   Biso      1.000     H          0.110115  
         H29       1.0000    0.73920   0.63100   0.49240   Biso      1.000     H          0.150864  
         H30       1.0000    0.62560   0.95100   0.77590   Biso      1.000     H          0.150307  
         H31       1.0000    0.29240   0.08020   0.57620   Biso      1.000     H          0.153647  
         H32       1.0000    0.38260   0.16830   0.59240   Biso      1.000     H          0.183145  
         H33       1.0000    0.36900   0.10820   0.49240   Biso      1.000     H          0.150938  
         H34       1.0000    0.28420   0.03740   0.73890   Biso      1.000     H          0.110164  
         H35       1.0000    0.35460   0.13510   0.71990   Biso      1.000     H          0.118101  
         H36       1.0000    0.32580   0.12550   0.88130   Biso      1.000     H          0.126645  
         H37       1.0000    0.32680   0.03690   0.89600   Biso      1.000     H          0.123854  
         H38       1.0000    0.49910   0.82060   0.79690   Biso      1.000     H          0.126096  
         H39       1.0000    0.45190   0.15320   0.97620   Biso      1.000     H          0.106734  
         H40       1.0000    0.15320   0.70130   0.47620   Biso      1.000     H          0.106457  
         H41       1.0000    0.82060   0.32150   0.29690   Biso      1.000     H          0.126069  
         H42       1.0000    0.03690   0.71010   0.39600   Biso      1.000     H          0.123666  
         H43       1.0000    0.16830   0.78570   0.09240   Biso      1.000     H          0.183029  
         H44       1.0000    0.12550   0.79970   0.38130   Biso      1.000     H          0.126415  
         H45       1.0000    0.75800   0.95740   0.80770   Biso      1.000     H          0.129471  
         H46       1.0000    0.08950   0.09950   0.82920   Biso      1.000     H          0.159465  
         H47       1.0000    0.17190   0.09120   0.86180   Biso      1.000     H          0.163733  
         H48       1.0000    0.08740   0.04970   0.93490   Biso      1.000     H          0.171768  
         H49       1.0000    0.13510   0.78050   0.21990   Biso      1.000     H          0.117957  
         H50       1.0000    0.19940   0.24200   0.80770   Biso      1.000     H          0.129504  
         H51       1.0000    0.28200   0.26920   0.87530   Biso      1.000     H          0.112879  
         H52       1.0000    0.03740   0.75320   0.23890   Biso      1.000     H          0.109823  
         H53       1.0000    0.23430   0.36800   0.76370   Biso      1.000     H          0.109024  
         H54       1.0000    0.32540   0.37440   0.77590   Biso      1.000     H          0.150286  
         H55       1.0000    0.10820   0.73920   0.99240   Biso      1.000     H          0.150722  
         H56       1.0000    0.78780   0.70760   0.57620   Biso      1.000     H          0.15362   
         H57       1.0000    0.78570   0.61740   0.59240   Biso      1.000     H          0.183145  
         H58       1.0000    0.73080   0.01280   0.87530   Biso      1.000     H          0.112892  
         H59       1.0000    0.86490   0.21950   0.71990   Biso      1.000     H          0.11812   
         H60       1.0000    0.96230   0.91260   0.93490   Biso      1.000     H          0.171733  
         H61       1.0000    0.87450   0.20030   0.88130   Biso      1.000     H          0.126664  
         H62       1.0000    0.09950   0.01000   0.32920   Biso      1.000     H          0.159459  
         H63       1.0000    0.09120   0.91930   0.36180   Biso      1.000     H          0.163825  
         H64       1.0000    0.04970   0.96230   0.43490   Biso      1.000     H          0.171704  
         H65       1.0000    0.20030   0.32580   0.38130   Biso      1.000     H          0.126557  
         H66       1.0000    0.24200   0.04260   0.30770   Biso      1.000     H          0.129559  
         H67       1.0000    0.26920   0.98720   0.37530   Biso      1.000     H          0.112959  
         H68       1.0000    0.21950   0.35460   0.21990   Biso      1.000     H          0.118042  
         H69       1.0000    0.36800   0.13370   0.26370   Biso      1.000     H          0.108928  
         H70       1.0000    0.37440   0.04900   0.27590   Biso      1.000     H          0.150326  
         H71       1.0000    0.24680   0.28420   0.23890   Biso      1.000     H          0.109969  
         H72       1.0000    0.61740   0.83170   0.09240   Biso      1.000     H          0.18298   
         H73       1.0000    0.63100   0.89180   0.99240   Biso      1.000     H          0.150715  
         H74       1.0000    0.26080   0.36900   0.99240   Biso      1.000     H          0.150778  
         H75       1.0000    0.28990   0.32680   0.39600   Biso      1.000     H          0.123737  
         H76       1.0000    0.71580   0.96260   0.23890   Biso      1.000     H          0.10983   
         H77       1.0000    0.21430   0.38260   0.09240   Biso      1.000     H          0.1831    
         H78       1.0000    0.67420   0.87450   0.38130   Biso      1.000     H          0.126397  
         H79       1.0000    0.67320   0.96310   0.39600   Biso      1.000     H          0.123688  
         H80       1.0000    0.21220   0.29240   0.07620   Biso      1.000     H          0.153533  
         H81       1.0000    0.50090   0.17940   0.29690   Biso      1.000     H          0.12607   
         H82       1.0000    0.67460   0.62560   0.27590   Biso      1.000     H          0.150303  
         H83       1.0000    0.76570   0.63200   0.26370   Biso      1.000     H          0.109041  
         H84       1.0000    0.71800   0.73080   0.37530   Biso      1.000     H          0.112944  
         H85       1.0000    0.80060   0.75800   0.30770   Biso      1.000     H          0.129576  
         H86       1.0000    0.54810   0.84680   0.47620   Biso      1.000     H          0.106461  
         H87       1.0000    0.91260   0.95030   0.43490   Biso      1.000     H          0.171722  
         H88       1.0000    0.82810   0.90880   0.36180   Biso      1.000     H          0.163824  
         H89       1.0000    0.91050   0.90050   0.32920   Biso      1.000     H          0.15948   
         H90       1.0000    0.64540   0.86490   0.21990   Biso      1.000     H          0.11792   
         H91       1.0000    0.67850   0.49910   0.29690   Biso      1.000     H          0.126122  
         H92       1.0000    0.70760   0.91980   0.07620   Biso      1.000     H          0.153452  
         H93       1.0000    0.29870   0.45190   0.47620   Biso      1.000     H          0.106591  
         H94       1.0000    0.96310   0.28990   0.89600   Biso      1.000     H          0.123811  
         H95       1.0000    0.17940   0.67850   0.79690   Biso      1.000     H          0.126087  
         H96       1.0000    0.84680   0.29870   0.97620   Biso      1.000     H          0.10674   
         N1        1.0000    0.40490   0.49370   0.36500   Biso      1.000     N          -0.406419           
         N2        1.0000    0.59840   0.49680   0.38940   Biso      1.000     N          -0.427687           
         N3        1.0000    0.10160   0.59840   0.88940   Biso      1.000     N          -0.427838           
         N4        1.0000    0.40160   0.50320   0.88940   Biso      1.000     N          -0.427641           
         N5        1.0000    0.91120   0.40490   0.86500   Biso      1.000     N          -0.406408           
         N6        1.0000    0.49370   0.08880   0.86500   Biso      1.000     N          -0.406437           
         N7        1.0000    0.89840   0.40160   0.38940   Biso      1.000     N          -0.427875           
         N8        1.0000    0.50320   0.10160   0.38940   Biso      1.000     N          -0.42787  
         N9        1.0000    0.50630   0.91120   0.36500   Biso      1.000     N          -0.406862           
         N10       1.0000    0.49680   0.89840   0.88940   Biso      1.000     N          -0.427839           
         N11       1.0000    0.08880   0.59510   0.36500   Biso      1.000     N          -0.40688  
         N12       1.0000    0.59510   0.50630   0.86500   Biso      1.000     N          -0.406313           
         O1        1.0000    0.51520   0.71710   0.92670   Biso      1.000     O          -0.456496           
         O2        1.0000    0.32530   0.56010   0.26950   Biso      1.000     O          -0.529593           
         O3        1.0000    0.48480   0.28290   0.42670   Biso      1.000     O          -0.456588           
         O4        1.0000    0.71710   0.20190   0.42670   Biso      1.000     O          -0.456436           
         O5        1.0000    0.41910   0.98010   0.98600   Biso      1.000     O          -0.426302           
         O6        1.0000    0.02320   0.44810   0.28300   Biso      1.000     O          -0.409158           
         O7        1.0000    0.75990   0.32450   0.50000   Biso      1.000     O          -0.561954           
         O8        1.0000    0.29420   0.80320   0.36180   Biso      1.000     O          -0.550438           
         O9        1.0000    0.58090   0.01990   0.48600   Biso      1.000     O          -0.42619  
         O10       1.0000    0.43540   0.75990   0.00000   Biso      1.000     O          -0.561682           
         O11       1.0000    0.56460   0.24010   0.50000   Biso      1.000     O          -0.562095           
         O12       1.0000    0.50900   0.70580   0.36180   Biso      1.000     O          -0.550614           
         O13       1.0000    0.23480   0.67470   0.26950   Biso      1.000     O          -0.530119           
         O14       1.0000    0.42490   0.97680   0.28300   Biso      1.000     O          -0.40913  
         O15       1.0000    0.43990   0.76520   0.26950   Biso      1.000     O          -0.530177           
         O16       1.0000    0.35730   0.82330   0.12900   Biso      1.000     O          -0.796072           
         O17       1.0000    0.98010   0.56100   0.48600   Biso      1.000     O          -0.426209           
         O18       1.0000    0.49100   0.29420   0.86180   Biso      1.000     O          -0.549627           
         O19       1.0000    0.64270   0.17670   0.62900   Biso      1.000     O          -0.796807           
         O20       1.0000    0.56010   0.23480   0.76950   Biso      1.000     O          -0.529465           
         O21       1.0000    0.20190   0.48480   0.92670   Biso      1.000     O          -0.456223           
         O22       1.0000    0.56100   0.58090   0.98600   Biso      1.000     O          -0.42613  
         O23       1.0000    0.32450   0.56460   0.00000   Biso      1.000     O          -0.561659           
         O24       1.0000    0.80320   0.50900   0.86180   Biso      1.000     O          -0.549519           
         O25       1.0000    0.44810   0.42490   0.78300   Biso      1.000     O          -0.408371           
         O26       1.0000    0.67470   0.43990   0.76950   Biso      1.000     O          -0.529499           
         O27       1.0000    0.53400   0.35730   0.62900   Biso      1.000     O          -0.795964           
         O28       1.0000    0.76520   0.32530   0.76950   Biso      1.000     O          -0.529437           
         O29       1.0000    0.57510   0.02320   0.78300   Biso      1.000     O          -0.408323           
         O30       1.0000    0.70580   0.19680   0.86180   Biso      1.000     O          -0.549489           
         O31       1.0000    0.97680   0.55190   0.78300   Biso      1.000     O          -0.408308           
         O32       1.0000    0.01990   0.43900   0.98600   Biso      1.000     O          -0.426333           
         O33       1.0000    0.28290   0.79810   0.92670   Biso      1.000     O          -0.456407           
         O34       1.0000    0.79810   0.51520   0.42670   Biso      1.000     O          -0.456147           
         O35       1.0000    0.43900   0.41910   0.48600   Biso      1.000     O          -0.426124           
         O36       1.0000    0.67550   0.43540   0.50000   Biso      1.000     O          -0.561705           
         O37       1.0000    0.19680   0.49100   0.36180   Biso      1.000     O          -0.549883           
         O38       1.0000    0.46600   0.64270   0.12900   Biso      1.000     O          -0.795388           
         O39       1.0000    0.55190   0.57510   0.28300   Biso      1.000     O          -0.4086   
         O40       1.0000    0.82330   0.46600   0.62900   Biso      1.000     O          -0.796983           
         O41       1.0000    0.24010   0.67550   0.00000   Biso      1.000     O          -0.561617           
         O42       1.0000    0.17670   0.53400   0.12900   Biso      1.000     O          -0.796377           
         S1        1.0000    0.79810   0.96700   0.96310   Biso      1.000     S          -0.021706           
         S2        1.0000    0.39960   0.04570   0.64700   Biso      1.000     S          -0.039649           
         S3        1.0000    0.35390   0.39960   0.14700   Biso      1.000     S          -0.042414           
         S4        1.0000    0.64610   0.60040   0.64700   Biso      1.000     S          -0.040749           
         S5        1.0000    0.04570   0.64610   0.14700   Biso      1.000     S          -0.043327           
         S6        1.0000    0.83110   0.79810   0.46310   Biso      1.000     S          -0.021868           
         S7        1.0000    0.03300   0.83110   0.96310   Biso      1.000     S          -0.021728           
         S8        1.0000    0.95430   0.35390   0.64700   Biso      1.000     S          -0.039962           
         S9        1.0000    0.20190   0.03300   0.46310   Biso      1.000     S          -0.022119           
         S10       1.0000    0.60040   0.95430   0.14700   Biso      1.000     S          -0.043433           
         S11       1.0000    0.16890   0.20190   0.96310   Biso      1.000     S          -0.021707           
         S12       1.0000    0.96700   0.16890   0.46310   Biso      1.000     S          -0.022069 