
##########################################################################
#               Crystallographic Information Format file
#               Produced by PyCifRW module
#
#  This is a CIF file.  CIF has been adopted by the International
#  Union of Crystallography as the standard for data archiving and
#  transmission.
#
#  For information on this file format, follow the CIF links at
#  http://www.iucr.org
##########################################################################

data_image0

_cell_length_a                          26.179
_cell_length_b                          26.179
_cell_length_c                          6.652
_cell_angle_alpha                       90
_cell_angle_beta                        90
_cell_angle_gamma                       120
_symmetry_space_group_name_H-M          'P 1'
_symmetry_int_tables_number             1
loop_
  _symmetry_equiv_pos_as_xyz
         'x, y, z' 
loop_
  _atom_site_label
  _atom_site_occupancy
  _atom_site_fract_x
  _atom_site_fract_y
  _atom_site_fract_z
  _atom_site_thermal_displace_type
  _atom_site_B_iso_or_equiv
  _atom_site_type_symbol
  _atom_site_charge
         C1        1.0000    0.20386   0.88096   0.71221   Biso      1.000     C          -0.154251           
         C2        1.0000    0.51653   0.49652   0.69615   Biso      1.000     C          -0.196512           
         C3        1.0000    0.57719   0.59885   0.24862   Biso      1.000     C          0.655573  
         C4        1.0000    0.93218   0.68832   0.41805   Biso      1.000     C          0.656302  
         C5        1.0000    0.82985   0.64665   0.97052   Biso      1.000     C          -0.195607           
         C6        1.0000    0.87749   0.65709   0.09164   Biso      1.000     C          0.304125  
         C7        1.0000    0.88096   0.67710   0.28779   Biso      1.000     C          -0.154362           
         C8        1.0000    0.24386   0.93218   0.58195   Biso      1.000     C          0.6562640000000001  
         C9        1.0000    0.54763   0.01043   0.62112   Biso      1.000     C          -0.15304600000000002          
         C10       1.0000    0.22040   0.87749   0.90836   Biso      1.000     C          0.304071  
         C11       1.0000    0.12251   0.34291   0.90836   Biso      1.000     C          0.304125  
         C12       1.0000    0.08947   0.73449   0.08472   Biso      1.000     C          0.655736  
         C13       1.0000    0.15013   0.83682   0.63719   Biso      1.000     C          -0.195967           
         C14       1.0000    0.11293   0.78918   0.75831   Biso      1.000     C          0.304249  
         C15       1.0000    0.12947   0.78571   0.95446   Biso      1.000     C          -0.153875           
         C16       1.0000    0.32376   0.11293   0.24169   Biso      1.000     C          0.30442600000000003           
         C17       1.0000    0.06782   0.31168   0.58195   Biso      1.000     C          0.656302  
         C18       1.0000    0.11904   0.32290   0.71221   Biso      1.000     C          -0.154362           
         C19       1.0000    0.42281   0.40115   0.75138   Biso      1.000     C          0.655573  
         C20       1.0000    0.54416   0.99042   0.42497   Biso      1.000     C          0.303809  
         C21       1.0000    0.59885   0.02165   0.75138   Biso      1.000     C          0.655559  
         C22       1.0000    0.87053   0.21429   0.04554   Biso      1.000     C          -0.153875           
         C23       1.0000    0.88707   0.21082   0.24169   Biso      1.000     C          0.304249  
         C24       1.0000    0.68832   0.75614   0.58195   Biso      1.000     C          0.656289  
         C25       1.0000    0.64665   0.81680   0.02948   Biso      1.000     C          -0.195398           
         C26       1.0000    0.65709   0.77960   0.90836   Biso      1.000     C          0.304063  
         C27       1.0000    0.67710   0.79614   0.71221   Biso      1.000     C          -0.15428599999999998          
         C28       1.0000    0.84987   0.16318   0.36281   Biso      1.000     C          -0.195967           
         C29       1.0000    0.49652   0.97998   0.30385   Biso      1.000     C          -0.196294           
         C30       1.0000    0.91053   0.26551   0.91528   Biso      1.000     C          0.655736  
         C31       1.0000    0.26551   0.35499   0.08472   Biso      1.000     C          0.65578   
         C32       1.0000    0.16318   0.31332   0.63719   Biso      1.000     C          -0.195856           
         C33       1.0000    0.21082   0.32376   0.75831   Biso      1.000     C          0.304361  
         C34       1.0000    0.21429   0.34377   0.95446   Biso      1.000     C          -0.15390399999999999          
         C35       1.0000    0.35499   0.08947   0.91528   Biso      1.000     C          0.655874  
         C36       1.0000    0.53719   0.54763   0.37888   Biso      1.000     C          -0.153083           
         C37       1.0000    0.55373   0.54416   0.57503   Biso      1.000     C          0.30401999999999996           
         C38       1.0000    0.31332   0.15013   0.36281   Biso      1.000     C          -0.195872           
         C39       1.0000    0.48347   0.50348   0.30385   Biso      1.000     C          -0.196512           
         C40       1.0000    0.17015   0.35335   0.02948   Biso      1.000     C          -0.195606           
         C41       1.0000    0.65623   0.87053   0.95446   Biso      1.000     C          -0.154118           
         C42       1.0000    0.67624   0.88707   0.75831   Biso      1.000     C          0.30442600000000003           
         C43       1.0000    0.44627   0.45584   0.42497   Biso      1.000     C          0.304019  
         C44       1.0000    0.97998   0.48347   0.69615   Biso      1.000     C          -0.1968   
         C45       1.0000    0.45237   0.98957   0.37888   Biso      1.000     C          -0.15304600000000002          
         C46       1.0000    0.45584   0.00958   0.57503   Biso      1.000     C          0.303809  
         C47       1.0000    0.97835   0.57719   0.75138   Biso      1.000     C          0.6553979999999999  
         C48       1.0000    0.02002   0.51653   0.30385   Biso      1.000     C          -0.1968   
         C49       1.0000    0.68668   0.84987   0.63719   Biso      1.000     C          -0.195872           
         C50       1.0000    0.00958   0.55373   0.42497   Biso      1.000     C          0.30385   
         C51       1.0000    0.50348   0.02002   0.69615   Biso      1.000     C          -0.196294           
         C52       1.0000    0.40115   0.97835   0.24862   Biso      1.000     C          0.655559  
         C53       1.0000    0.02165   0.42281   0.24862   Biso      1.000     C          0.6553979999999999  
         C54       1.0000    0.31168   0.24386   0.41805   Biso      1.000     C          0.656289  
         C55       1.0000    0.35335   0.18320   0.97052   Biso      1.000     C          -0.195398           
         C56       1.0000    0.34291   0.22040   0.09164   Biso      1.000     C          0.304063  
         C57       1.0000    0.32290   0.20386   0.28779   Biso      1.000     C          -0.15428599999999998          
         C58       1.0000    0.98957   0.53719   0.62112   Biso      1.000     C          -0.152829           
         C59       1.0000    0.64501   0.91053   0.08472   Biso      1.000     C          0.655874  
         C60       1.0000    0.34377   0.12947   0.04554   Biso      1.000     C          -0.154118           
         C61       1.0000    0.79614   0.11904   0.28779   Biso      1.000     C          -0.154251           
         C62       1.0000    0.78571   0.65623   0.04554   Biso      1.000     C          -0.15390399999999999          
         C63       1.0000    0.01043   0.46281   0.37888   Biso      1.000     C          -0.15283  
         C64       1.0000    0.81680   0.17015   0.97052   Biso      1.000     C          -0.195508           
         C65       1.0000    0.77960   0.12251   0.09164   Biso      1.000     C          0.304071  
         C66       1.0000    0.75614   0.06782   0.41805   Biso      1.000     C          0.6562640000000001  
         C67       1.0000    0.78918   0.67624   0.24169   Biso      1.000     C          0.304361  
         C68       1.0000    0.18320   0.82985   0.02948   Biso      1.000     C          -0.195508           
         C69       1.0000    0.73449   0.64501   0.91528   Biso      1.000     C          0.65578   
         C70       1.0000    0.99042   0.44627   0.57503   Biso      1.000     C          0.30385100000000004           
         C71       1.0000    0.46281   0.45237   0.62112   Biso      1.000     C          -0.153082           
         C72       1.0000    0.83682   0.68668   0.36281   Biso      1.000     C          -0.195856           
         H1        1.0000    0.63111   0.80395   0.18183   Biso      1.000     H          0.13197899999999999           
         H2        1.0000    0.36889   0.19605   0.81817   Biso      1.000     H          0.13197899999999999           
         H3        1.0000    0.17284   0.36889   0.18183   Biso      1.000     H          0.132022  
         H4        1.0000    0.19605   0.82716   0.18183   Biso      1.000     H          0.131997  
         H5        1.0000    0.86272   0.16049   0.51516   Biso      1.000     H          0.132304  
         H6        1.0000    0.50617   0.03556   0.84850   Biso      1.000     H          0.132192  
         H7        1.0000    0.13728   0.83951   0.48484   Biso      1.000     H          0.132304  
         H8        1.0000    0.47062   0.50617   0.15150   Biso      1.000     H          0.13226400000000002           
         H9        1.0000    0.82716   0.63111   0.81817   Biso      1.000     H          0.132022  
         H10       1.0000    0.80395   0.17284   0.81817   Biso      1.000     H          0.131997  
         H11       1.0000    0.03556   0.52938   0.15150   Biso      1.000     H          0.132358  
         H12       1.0000    0.29778   0.13728   0.51516   Biso      1.000     H          0.132246  
         H13       1.0000    0.96444   0.47062   0.84850   Biso      1.000     H          0.132358  
         H14       1.0000    0.49383   0.96444   0.15150   Biso      1.000     H          0.132192  
         H15       1.0000    0.83951   0.70222   0.51516   Biso      1.000     H          0.132218  
         H16       1.0000    0.52938   0.49383   0.84850   Biso      1.000     H          0.13226400000000002           
         H17       1.0000    0.70222   0.86272   0.48484   Biso      1.000     H          0.132246  
         H18       1.0000    0.16049   0.29778   0.48484   Biso      1.000     H          0.132218  
         O1        1.0000    0.29230   0.97198   0.64960   Biso      1.000     O          -0.592018           
         O2        1.0000    0.25356   0.31447   0.68567   Biso      1.000     O          -0.618321           
         O3        1.0000    0.27243   0.92023   0.98100   Biso      1.000     O          -0.618478           
         O4        1.0000    0.95897   0.30531   0.98293   Biso      1.000     O          -0.5914229999999999           
         O5        1.0000    0.89562   0.26864   0.73843   Biso      1.000     O          -0.563071           
         O6        1.0000    0.93910   0.25356   0.31433   Biso      1.000     O          -0.6182489999999999           
         O7        1.0000    0.62563   0.63865   0.31627   Biso      1.000     O          -0.592156           
         O8        1.0000    0.56228   0.60198   0.07177   Biso      1.000     O          -0.562549           
         O9        1.0000    0.02802   0.32032   0.64960   Biso      1.000     O          -0.592041           
         O10       1.0000    0.06469   0.29364   0.40510   Biso      1.000     O          -0.562971           
         O11       1.0000    0.07977   0.35220   0.98100   Biso      1.000     O          -0.618483           
         O12       1.0000    0.69469   0.65365   0.98293   Biso      1.000     O          -0.591368           
         O13       1.0000    0.73136   0.62697   0.73843   Biso      1.000     O          -0.5630229999999999           
         O14       1.0000    0.74644   0.68553   0.31433   Biso      1.000     O          -0.618321           
         O15       1.0000    0.36135   0.98699   0.31627   Biso      1.000     O          -0.5921   
         O16       1.0000    0.22895   0.93531   0.40510   Biso      1.000     O          -0.5629689999999999           
         O17       1.0000    0.60576   0.58690   0.64767   Biso      1.000     O          -0.617937           
         O18       1.0000    0.41310   0.01887   0.64767   Biso      1.000     O          -0.617829           
         O19       1.0000    0.06090   0.74644   0.68567   Biso      1.000     O          -0.6182489999999999           
         O20       1.0000    0.63865   0.01301   0.68373   Biso      1.000     O          -0.5921   
         O21       1.0000    0.92023   0.64780   0.01900   Biso      1.000     O          -0.618483           
         O22       1.0000    0.93531   0.70636   0.59490   Biso      1.000     O          -0.562971           
         O23       1.0000    0.97198   0.67968   0.35040   Biso      1.000     O          -0.592041           
         O24       1.0000    0.01887   0.60576   0.35233   Biso      1.000     O          -0.617766           
         O25       1.0000    0.98113   0.39424   0.64767   Biso      1.000     O          -0.617766           
         O26       1.0000    0.10438   0.73136   0.26157   Biso      1.000     O          -0.563071           
         O27       1.0000    0.04103   0.69469   0.01707   Biso      1.000     O          -0.5914229999999999           
         O28       1.0000    0.65365   0.95897   0.01707   Biso      1.000     O          -0.591549           
         O29       1.0000    0.39424   0.41310   0.35233   Biso      1.000     O          -0.617937           
         O30       1.0000    0.43772   0.39802   0.92823   Biso      1.000     O          -0.562549           
         O31       1.0000    0.37437   0.36135   0.68373   Biso      1.000     O          -0.592156           
         O32       1.0000    0.62697   0.89562   0.26157   Biso      1.000     O          -0.5629689999999999           
         O33       1.0000    0.72757   0.07977   0.01900   Biso      1.000     O          -0.618478           
         O34       1.0000    0.68553   0.93910   0.68567   Biso      1.000     O          -0.618286           
         O35       1.0000    0.77105   0.06469   0.59490   Biso      1.000     O          -0.5629689999999999           
         O36       1.0000    0.96031   0.56228   0.92823   Biso      1.000     O          -0.5625020000000001           
         O37       1.0000    0.60198   0.03969   0.92823   Biso      1.000     O          -0.5625859999999999           
         O38       1.0000    0.98699   0.62563   0.68373   Biso      1.000     O          -0.5920569999999999           
         O39       1.0000    0.03969   0.43772   0.07177   Biso      1.000     O          -0.5625020000000001           
         O40       1.0000    0.01301   0.37437   0.31627   Biso      1.000     O          -0.5920569999999999           
         O41       1.0000    0.32032   0.29230   0.35040   Biso      1.000     O          -0.5920380000000001           
         O42       1.0000    0.31447   0.06090   0.31433   Biso      1.000     O          -0.618286           
         O43       1.0000    0.37303   0.10438   0.73843   Biso      1.000     O          -0.5629689999999999           
         O44       1.0000    0.34635   0.04103   0.98293   Biso      1.000     O          -0.591549           
         O45       1.0000    0.29364   0.22895   0.59490   Biso      1.000     O          -0.562963           
         O46       1.0000    0.64780   0.72757   0.98100   Biso      1.000     O          -0.6184649999999999           
         O47       1.0000    0.35220   0.27243   0.01900   Biso      1.000     O          -0.6184649999999999           
         O48       1.0000    0.70636   0.77105   0.40510   Biso      1.000     O          -0.562963           
         O49       1.0000    0.67968   0.70770   0.64960   Biso      1.000     O          -0.5920380000000001           
         O50       1.0000    0.39802   0.96031   0.07177   Biso      1.000     O          -0.5625859999999999           
         O51       1.0000    0.26864   0.37303   0.26157   Biso      1.000     O          -0.5630229999999999           
         O52       1.0000    0.30531   0.34635   0.01707   Biso      1.000     O          -0.591368           
         O53       1.0000    0.58690   0.98113   0.35233   Biso      1.000     O          -0.617829           
         O54       1.0000    0.70770   0.02802   0.35040   Biso      1.000     O          -0.592018           
         Zn1       1.0000    0.72123   0.01735   0.81878   Biso      1.000     Zn          1.0308620000000002  
         Zn2       1.0000    0.05457   0.68401   0.48544   Biso      1.000     Zn          1.0302639999999998  
         Zn3       1.0000    0.37055   0.05457   0.51456   Biso      1.000     Zn          1.0301360000000002  
         Zn4       1.0000    0.35068   0.96278   0.84789   Biso      1.000     Zn          1.030369  
         Zn5       1.0000    0.70389   0.72123   0.18122   Biso      1.000     Zn          1.030886  
         Zn6       1.0000    0.31599   0.37055   0.48544   Biso      1.000     Zn          1.03025   
         Zn7       1.0000    0.98265   0.70389   0.81878   Biso      1.000     Zn          1.0309030000000001  
         Zn8       1.0000    0.03722   0.38790   0.84789   Biso      1.000     Zn          1.030375  
         Zn9       1.0000    0.96278   0.61210   0.15211   Biso      1.000     Zn          1.030376  
         Zn10      1.0000    0.62945   0.94543   0.48544   Biso      1.000     Zn          1.0301360000000002  
         Zn11      1.0000    0.68401   0.62945   0.51456   Biso      1.000     Zn          1.030251  
         Zn12      1.0000    0.29611   0.27877   0.81878   Biso      1.000     Zn          1.030886  
         Zn13      1.0000    0.61210   0.64932   0.84789   Biso      1.000     Zn          1.0303639999999998  
         Zn14      1.0000    0.01735   0.29611   0.18122   Biso      1.000     Zn          1.0309030000000001  
         Zn15      1.0000    0.27877   0.98265   0.18122   Biso      1.000     Zn          1.0308620000000002  
         Zn16      1.0000    0.94543   0.31599   0.51456   Biso      1.000     Zn          1.030263  
         Zn17      1.0000    0.64932   0.03722   0.15211   Biso      1.000     Zn          1.030368  
         Zn18      1.0000    0.38790   0.35068   0.15211   Biso      1.000     Zn          1.0303639999999998 