
##########################################################################
#               Crystallographic Information Format file
#               Produced by PyCifRW module
#
#  This is a CIF file.  CIF has been adopted by the International
#  Union of Crystallography as the standard for data archiving and
#  transmission.
#
#  For information on this file format, follow the CIF links at
#  http://www.iucr.org
##########################################################################

data_image0

_cell_length_a                          26.1317
_cell_length_b                          26.1317
_cell_length_c                          6.722
_cell_angle_alpha                       90
_cell_angle_beta                        90
_cell_angle_gamma                       120
_symmetry_space_group_name_H-M          'P 1'
_symmetry_int_tables_number             1
loop_
  _symmetry_equiv_pos_as_xyz
         'x, y, z' 
loop_
  _atom_site_label
  _atom_site_occupancy
  _atom_site_fract_x
  _atom_site_fract_y
  _atom_site_fract_z
  _atom_site_thermal_displace_type
  _atom_site_B_iso_or_equiv
  _atom_site_type_symbol
  _atom_site_charge
         C1        1.0000    0.84534   0.16378   0.36679   Biso      1.000     C          -0.183364           
         C2        1.0000    0.87600   0.65585   0.08520   Biso      1.000     C          0.294369  
         C3        1.0000    0.87888   0.67074   0.28540   Biso      1.000     C          -0.168157           
         C4        1.0000    0.33741   0.12519   0.04793   Biso      1.000     C          -0.168991           
         C5        1.0000    0.32252   0.11318   0.24813   Biso      1.000     C          0.295482  
         C6        1.0000    0.31845   0.15466   0.36679   Biso      1.000     C          -0.18343399999999999          
         C7        1.0000    0.08771   0.73497   0.08967   Biso      1.000     C          0.692168  
         C8        1.0000    0.35275   0.08771   0.91033   Biso      1.000     C          0.691999  
         C9        1.0000    0.15466   0.83622   0.63321   Biso      1.000     C          -0.183366           
         C10       1.0000    0.11318   0.79067   0.75187   Biso      1.000     C          0.295657  
         C11       1.0000    0.12519   0.78779   0.95207   Biso      1.000     C          -0.169275           
         C12       1.0000    0.51200   0.49712   0.70013   Biso      1.000     C          -0.183104           
         C13       1.0000    0.78779   0.66259   0.04793   Biso      1.000     C          -0.169072           
         C14       1.0000    0.79067   0.67748   0.24813   Biso      1.000     C          0.295623  
         C15       1.0000    0.83622   0.68155   0.36679   Biso      1.000     C          -0.183187           
         C16       1.0000    0.42105   0.40163   0.75633   Biso      1.000     C          0.6921390000000001  
         C17       1.0000    0.83045   0.65178   0.96654   Biso      1.000     C          -0.183056           
         C18       1.0000    0.55348   0.54267   0.58147   Biso      1.000     C          0.29638600000000004           
         C19       1.0000    0.57895   0.59837   0.24367   Biso      1.000     C          0.6921390000000001  
         C20       1.0000    0.88682   0.20933   0.24813   Biso      1.000     C          0.295658  
         C21       1.0000    0.16378   0.31845   0.63321   Biso      1.000     C          -0.18318800000000002          
         C22       1.0000    0.20933   0.32252   0.75187   Biso      1.000     C          0.295624  
         C23       1.0000    0.21221   0.33741   0.95207   Biso      1.000     C          -0.169074           
         C24       1.0000    0.67074   0.79186   0.71460   Biso      1.000     C          -0.167926           
         C25       1.0000    0.12112   0.32926   0.71460   Biso      1.000     C          -0.168157           
         C26       1.0000    0.12400   0.34415   0.91480   Biso      1.000     C          0.29436599999999996           
         C27       1.0000    0.16955   0.34822   0.03346   Biso      1.000     C          -0.183054           
         C28       1.0000    0.59837   0.01941   0.75633   Biso      1.000     C          0.692508  
         C29       1.0000    0.65585   0.77985   0.91480   Biso      1.000     C          0.294297  
         C30       1.0000    0.49712   0.98511   0.29987   Biso      1.000     C          -0.18351099999999998          
         C31       1.0000    0.54267   0.98918   0.41853   Biso      1.000     C          0.296585  
         C32       1.0000    0.54555   0.00407   0.61873   Biso      1.000     C          -0.16958199999999998          
         C33       1.0000    0.65178   0.82133   0.03346   Biso      1.000     C          -0.182989           
         C34       1.0000    0.68608   0.75438   0.57700   Biso      1.000     C          0.690925  
         C35       1.0000    0.06830   0.31392   0.57700   Biso      1.000     C          0.690964  
         C36       1.0000    0.93170   0.68608   0.42300   Biso      1.000     C          0.6909689999999999  
         C37       1.0000    0.48800   0.50288   0.29987   Biso      1.000     C          -0.183103           
         C38       1.0000    0.44652   0.45733   0.41853   Biso      1.000     C          0.296387  
         C39       1.0000    0.66259   0.87481   0.95207   Biso      1.000     C          -0.168991           
         C40       1.0000    0.45445   0.99593   0.38127   Biso      1.000     C          -0.16958  
         C41       1.0000    0.45733   0.01082   0.58147   Biso      1.000     C          0.296589  
         C42       1.0000    0.50288   0.01489   0.70013   Biso      1.000     C          -0.18351099999999998          
         C43       1.0000    0.98059   0.57895   0.75633   Biso      1.000     C          0.692098  
         C44       1.0000    0.17867   0.83045   0.03346   Biso      1.000     C          -0.182943           
         C45       1.0000    0.01489   0.51200   0.29987   Biso      1.000     C          -0.18337799999999999          
         C46       1.0000    0.01082   0.55348   0.41853   Biso      1.000     C          0.296437  
         C47       1.0000    0.22015   0.87600   0.91480   Biso      1.000     C          0.29434099999999996           
         C48       1.0000    0.99593   0.54147   0.61873   Biso      1.000     C          -0.169456           
         C49       1.0000    0.91229   0.26503   0.91033   Biso      1.000     C          0.6921609999999999  
         C50       1.0000    0.40163   0.98059   0.24367   Biso      1.000     C          0.692509  
         C51       1.0000    0.31392   0.24562   0.42300   Biso      1.000     C          0.690925  
         C52       1.0000    0.87481   0.21221   0.04793   Biso      1.000     C          -0.169273           
         C53       1.0000    0.34822   0.17867   0.96654   Biso      1.000     C          -0.182989           
         C54       1.0000    0.34415   0.22015   0.08520   Biso      1.000     C          0.294295  
         C55       1.0000    0.32926   0.20814   0.28540   Biso      1.000     C          -0.167927           
         C56       1.0000    0.24562   0.93170   0.57700   Biso      1.000     C          0.69096   
         C57       1.0000    0.45853   0.45445   0.61873   Biso      1.000     C          -0.169558           
         C58       1.0000    0.26503   0.35275   0.08967   Biso      1.000     C          0.6920310000000001  
         C59       1.0000    0.68155   0.84534   0.63321   Biso      1.000     C          -0.183435           
         C60       1.0000    0.54147   0.54555   0.38127   Biso      1.000     C          -0.16956  
         C61       1.0000    0.73497   0.64725   0.91033   Biso      1.000     C          0.69203   
         C62       1.0000    0.00407   0.45853   0.38127   Biso      1.000     C          -0.169454           
         C63       1.0000    0.75438   0.06830   0.42300   Biso      1.000     C          0.6909609999999999  
         C64       1.0000    0.98918   0.44652   0.58147   Biso      1.000     C          0.29643600000000003           
         C65       1.0000    0.82133   0.16955   0.96654   Biso      1.000     C          -0.182944           
         C66       1.0000    0.67748   0.88682   0.75187   Biso      1.000     C          0.295483  
         C67       1.0000    0.77985   0.12400   0.08520   Biso      1.000     C          0.29434   
         C68       1.0000    0.98511   0.48800   0.70013   Biso      1.000     C          -0.183376           
         C69       1.0000    0.01941   0.42105   0.24367   Biso      1.000     C          0.69209   
         C70       1.0000    0.64725   0.91229   0.08967   Biso      1.000     C          0.691999  
         C71       1.0000    0.20814   0.87888   0.71460   Biso      1.000     C          -0.16810899999999998          
         C72       1.0000    0.79186   0.12112   0.28540   Biso      1.000     C          -0.16811099999999998          
         Co1       1.0000    0.68259   0.63097   0.51659   Biso      1.000     Co          0.961816  
         Co2       1.0000    0.01593   0.29763   0.18325   Biso      1.000     Co          0.961714  
         Co3       1.0000    0.34926   0.96430   0.84992   Biso      1.000     Co          0.961408  
         Co4       1.0000    0.94837   0.31741   0.51659   Biso      1.000     Co          0.961838  
         Co5       1.0000    0.28171   0.98407   0.18325   Biso      1.000     Co          0.9616620000000001  
         Co6       1.0000    0.61504   0.65074   0.84992   Biso      1.000     Co          0.96145   
         Co7       1.0000    0.38496   0.34926   0.15008   Biso      1.000     Co          0.9614459999999999  
         Co8       1.0000    0.65074   0.03570   0.15008   Biso      1.000     Co          0.961385  
         Co9       1.0000    0.70237   0.71829   0.18325   Biso      1.000     Co          0.9616120000000001  
         Co10      1.0000    0.31741   0.36903   0.48341   Biso      1.000     Co          0.9618200000000001  
         Co11      1.0000    0.96430   0.61504   0.15008   Biso      1.000     Co          0.961471  
         Co12      1.0000    0.03570   0.38496   0.84992   Biso      1.000     Co          0.961412  
         Co13      1.0000    0.36903   0.05163   0.51659   Biso      1.000     Co          0.9620129999999999  
         Co14      1.0000    0.98407   0.70237   0.81675   Biso      1.000     Co          0.961736  
         Co15      1.0000    0.63097   0.94837   0.48341   Biso      1.000     Co          0.962023  
         Co16      1.0000    0.29763   0.28171   0.81675   Biso      1.000     Co          0.9616110000000001  
         Co17      1.0000    0.71829   0.01593   0.81675   Biso      1.000     Co          0.9616610000000001  
         Co18      1.0000    0.05163   0.68259   0.48341   Biso      1.000     Co          0.961859  
         H1        1.0000    0.97353   0.47867   0.85557   Biso      1.000     H          0.13837   
         H2        1.0000    0.81200   0.17180   0.81110   Biso      1.000     H          0.138466  
         H3        1.0000    0.18800   0.82820   0.18890   Biso      1.000     H          0.138469  
         H4        1.0000    0.02647   0.52133   0.14443   Biso      1.000     H          0.13837   
         H5        1.0000    0.47867   0.50513   0.14443   Biso      1.000     H          0.138296  
         H6        1.0000    0.83847   0.69313   0.52223   Biso      1.000     H          0.138597  
         H7        1.0000    0.30687   0.14533   0.52223   Biso      1.000     H          0.138648  
         H8        1.0000    0.50513   0.02647   0.85557   Biso      1.000     H          0.138496  
         H9        1.0000    0.85467   0.16153   0.52223   Biso      1.000     H          0.138651  
         H10       1.0000    0.52133   0.49487   0.85557   Biso      1.000     H          0.138293  
         H11       1.0000    0.82820   0.64020   0.81110   Biso      1.000     H          0.138482  
         H12       1.0000    0.17180   0.35980   0.18890   Biso      1.000     H          0.138478  
         H13       1.0000    0.64020   0.81200   0.18890   Biso      1.000     H          0.13846   
         H14       1.0000    0.49487   0.97353   0.14443   Biso      1.000     H          0.138495  
         H15       1.0000    0.16153   0.30687   0.47777   Biso      1.000     H          0.138595  
         H16       1.0000    0.35980   0.18800   0.81110   Biso      1.000     H          0.13846   
         H17       1.0000    0.14533   0.83847   0.47777   Biso      1.000     H          0.138653  
         H18       1.0000    0.69313   0.85467   0.47777   Biso      1.000     H          0.138648  
         O1        1.0000    0.95862   0.30146   0.97493   Biso      1.000     O          -0.593785           
         O2        1.0000    0.36520   0.99049   0.30827   Biso      1.000     O          -0.593635           
         O3        1.0000    0.60547   0.58346   0.67097   Biso      1.000     O          -0.600071           
         O4        1.0000    0.93881   0.25012   0.33763   Biso      1.000     O          -0.599614           
         O5        1.0000    0.74988   0.68868   0.33763   Biso      1.000     O          -0.5997   
         O6        1.0000    0.73747   0.63305   0.74313   Biso      1.000     O          -0.542485           
         O7        1.0000    0.69854   0.65715   0.97493   Biso      1.000     O          -0.593639           
         O8        1.0000    0.08321   0.35535   0.00430   Biso      1.000     O          -0.5987979999999999           
         O9        1.0000    0.07080   0.29972   0.40980   Biso      1.000     O          -0.542133           
         O10       1.0000    0.62528   0.63480   0.30827   Biso      1.000     O          -0.593391           
         O11       1.0000    0.56225   0.59587   0.07647   Biso      1.000     O          -0.542345           
         O12       1.0000    0.89559   0.26253   0.74313   Biso      1.000     O          -0.542473           
         O13       1.0000    0.03187   0.32382   0.64160   Biso      1.000     O          -0.5930479999999999           
         O14       1.0000    0.25012   0.31132   0.66237   Biso      1.000     O          -0.5997   
         O15       1.0000    0.22892   0.92920   0.40980   Biso      1.000     O          -0.542137           
         O16       1.0000    0.04138   0.69854   0.02507   Biso      1.000     O          -0.593795           
         O17       1.0000    0.39453   0.41654   0.32903   Biso      1.000     O          -0.600071           
         O18       1.0000    0.43775   0.40413   0.92353   Biso      1.000     O          -0.542347           
         O19       1.0000    0.37472   0.36520   0.69173   Biso      1.000     O          -0.593391           
         O20       1.0000    0.72786   0.08321   0.99570   Biso      1.000     O          -0.598805           
         O21       1.0000    0.77108   0.07080   0.59020   Biso      1.000     O          -0.542133           
         O22       1.0000    0.70805   0.03187   0.35840   Biso      1.000     O          -0.593052           
         O23       1.0000    0.10441   0.73747   0.25687   Biso      1.000     O          -0.5424720000000001           
         O24       1.0000    0.68868   0.93881   0.66237   Biso      1.000     O          -0.599696           
         O25       1.0000    0.65715   0.95862   0.02507   Biso      1.000     O          -0.5935600000000001           
         O26       1.0000    0.02202   0.60547   0.32903   Biso      1.000     O          -0.600096           
         O27       1.0000    0.96639   0.56225   0.92353   Biso      1.000     O          -0.542322           
         O28       1.0000    0.99049   0.62528   0.69173   Biso      1.000     O          -0.593366           
         O29       1.0000    0.35535   0.27214   0.99570   Biso      1.000     O          -0.59878  
         O30       1.0000    0.29972   0.22892   0.59020   Biso      1.000     O          -0.542111           
         O31       1.0000    0.32382   0.29195   0.35840   Biso      1.000     O          -0.59306  
         O32       1.0000    0.63305   0.89559   0.25687   Biso      1.000     O          -0.542493           
         O33       1.0000    0.06119   0.74988   0.66237   Biso      1.000     O          -0.599619           
         O34       1.0000    0.96813   0.67618   0.35840   Biso      1.000     O          -0.593058           
         O35       1.0000    0.92920   0.70028   0.59020   Biso      1.000     O          -0.542136           
         O36       1.0000    0.29195   0.96813   0.64160   Biso      1.000     O          -0.593054           
         O37       1.0000    0.97798   0.39453   0.67097   Biso      1.000     O          -0.6000810000000001           
         O38       1.0000    0.03361   0.43775   0.07647   Biso      1.000     O          -0.5423140000000001           
         O39       1.0000    0.00951   0.37472   0.30827   Biso      1.000     O          -0.593359           
         O40       1.0000    0.31132   0.06119   0.33763   Biso      1.000     O          -0.599696           
         O41       1.0000    0.36695   0.10441   0.74313   Biso      1.000     O          -0.542492           
         O42       1.0000    0.34285   0.04138   0.97493   Biso      1.000     O          -0.593564           
         O43       1.0000    0.64465   0.72786   0.00430   Biso      1.000     O          -0.5987819999999999           
         O44       1.0000    0.70028   0.77108   0.40980   Biso      1.000     O          -0.542115           
         O45       1.0000    0.67618   0.70805   0.64160   Biso      1.000     O          -0.59306  
         O46       1.0000    0.40413   0.96639   0.07647   Biso      1.000     O          -0.542441           
         O47       1.0000    0.26253   0.36695   0.25687   Biso      1.000     O          -0.5424859999999999           
         O48       1.0000    0.30146   0.34285   0.02507   Biso      1.000     O          -0.593638           
         O49       1.0000    0.58346   0.97798   0.32903   Biso      1.000     O          -0.600255           
         O50       1.0000    0.59587   0.03361   0.92353   Biso      1.000     O          -0.542429           
         O51       1.0000    0.63480   0.00951   0.69173   Biso      1.000     O          -0.593637           
         O52       1.0000    0.91679   0.64465   0.99570   Biso      1.000     O          -0.598816           
         O53       1.0000    0.27214   0.91679   0.00430   Biso      1.000     O          -0.598811           
         O54       1.0000    0.41654   0.02202   0.67097   Biso      1.000     O          -0.60026 