
##########################################################################
#               Crystallographic Information Format file
#               Produced by PyCifRW module
#
#  This is a CIF file.  CIF has been adopted by the International
#  Union of Crystallography as the standard for data archiving and
#  transmission.
#
#  For information on this file format, follow the CIF links at
#  http://www.iucr.org
##########################################################################

data_image0

_cell_length_a                          26.5738
_cell_length_b                          26.5738
_cell_length_c                          6.8088
_cell_angle_alpha                       90
_cell_angle_beta                        90
_cell_angle_gamma                       120
_symmetry_space_group_name_H-M          'P 1'
_symmetry_int_tables_number             1
loop_
  _symmetry_equiv_pos_as_xyz
         'x, y, z' 
loop_
  _atom_site_label
  _atom_site_occupancy
  _atom_site_fract_x
  _atom_site_fract_y
  _atom_site_fract_z
  _atom_site_thermal_displace_type
  _atom_site_B_iso_or_equiv
  _atom_site_type_symbol
  _atom_site_charge
         C1        1.0000    0.84976   0.16536   0.35989   Biso      1.000     C          -0.201149           
         C2        1.0000    0.54715   0.01208   0.61998   Biso      1.000     C          -0.149813           
         C3        1.0000    0.99436   0.44852   0.57325   Biso      1.000     C          0.303872  
         C4        1.0000    0.06882   0.30825   0.58430   Biso      1.000     C          0.643958  
         C5        1.0000    0.88482   0.21251   0.23991   Biso      1.000     C          0.302502  
         C6        1.0000    0.93118   0.69175   0.41570   Biso      1.000     C          0.643958  
         C7        1.0000    0.83203   0.64894   0.97344   Biso      1.000     C          -0.20208299999999998          
         C8        1.0000    0.87918   0.66103   0.09342   Biso      1.000     C          0.30371   
         C9        1.0000    0.54585   0.99436   0.42675   Biso      1.000     C          0.30387600000000003           
         C10       1.0000    0.88048   0.67875   0.28665   Biso      1.000     C          -0.149829           
         C11       1.0000    0.02508   0.42724   0.25097   Biso      1.000     C          0.643728  
         C12       1.0000    0.09390   0.73549   0.08237   Biso      1.000     C          0.644713  
         C13       1.0000    0.15024   0.83464   0.64011   Biso      1.000     C          -0.201149           
         C14       1.0000    0.11518   0.78749   0.76009   Biso      1.000     C          0.302502  
         C15       1.0000    0.32770   0.11518   0.23991   Biso      1.000     C          0.302527  
         C16       1.0000    0.78619   0.65458   0.04668   Biso      1.000     C          -0.149767           
         C17       1.0000    0.78749   0.67230   0.23991   Biso      1.000     C          0.302595  
         C18       1.0000    0.98227   0.48358   0.69323   Biso      1.000     C          -0.202667           
         C19       1.0000    0.49870   0.98227   0.30677   Biso      1.000     C          -0.20281400000000002          
         C20       1.0000    0.59785   0.02508   0.74903   Biso      1.000     C          0.643946  
         C21       1.0000    0.16797   0.35106   0.02656   Biso      1.000     C          -0.20208299999999998          
         C22       1.0000    0.34542   0.13160   0.04668   Biso      1.000     C          -0.149897           
         C23       1.0000    0.57276   0.59785   0.25097   Biso      1.000     C          0.643745  
         C24       1.0000    0.35842   0.09390   0.91763   Biso      1.000     C          0.6444479999999999  
         C25       1.0000    0.69175   0.76057   0.58430   Biso      1.000     C          0.6439729999999999  
         C26       1.0000    0.64894   0.81691   0.02656   Biso      1.000     C          -0.202015           
         C27       1.0000    0.66103   0.78185   0.90658   Biso      1.000     C          0.303786  
         C28       1.0000    0.67875   0.79827   0.71335   Biso      1.000     C          -0.150071           
         C29       1.0000    0.51642   0.49870   0.69323   Biso      1.000     C          -0.202807           
         C30       1.0000    0.55148   0.54585   0.57325   Biso      1.000     C          0.303817  
         C31       1.0000    0.53506   0.54715   0.38002   Biso      1.000     C          -0.149809           
         C32       1.0000    0.26451   0.35842   0.08237   Biso      1.000     C          0.64458   
         C33       1.0000    0.16536   0.31561   0.64011   Biso      1.000     C          -0.201418           
         C34       1.0000    0.21251   0.32770   0.76009   Biso      1.000     C          0.302595  
         C35       1.0000    0.21381   0.34542   0.95332   Biso      1.000     C          -0.149767           
         C36       1.0000    0.01208   0.46494   0.38002   Biso      1.000     C          -0.149868           
         C37       1.0000    0.11952   0.32125   0.71335   Biso      1.000     C          -0.149829           
         C38       1.0000    0.12082   0.33897   0.90658   Biso      1.000     C          0.30371   
         C39       1.0000    0.83464   0.68439   0.35989   Biso      1.000     C          -0.201418           
         C40       1.0000    0.42724   0.40215   0.74903   Biso      1.000     C          0.643745  
         C41       1.0000    0.13160   0.78619   0.95332   Biso      1.000     C          -0.149981           
         C42       1.0000    0.48358   0.50130   0.30677   Biso      1.000     C          -0.202807           
         C43       1.0000    0.68439   0.84976   0.64011   Biso      1.000     C          -0.201238           
         C44       1.0000    0.67230   0.88482   0.76009   Biso      1.000     C          0.302527  
         C45       1.0000    0.65458   0.86840   0.95332   Biso      1.000     C          -0.149897           
         C46       1.0000    0.45285   0.98792   0.38002   Biso      1.000     C          -0.149813           
         C47       1.0000    0.45415   0.00564   0.57325   Biso      1.000     C          0.30387600000000003           
         C48       1.0000    0.50130   0.01773   0.69323   Biso      1.000     C          -0.20281400000000002          
         C49       1.0000    0.97492   0.57276   0.74903   Biso      1.000     C          0.643728  
         C50       1.0000    0.64158   0.90610   0.08237   Biso      1.000     C          0.6444479999999999  
         C51       1.0000    0.01773   0.51642   0.30677   Biso      1.000     C          -0.202667           
         C52       1.0000    0.98792   0.53506   0.61998   Biso      1.000     C          -0.149868           
         C53       1.0000    0.40215   0.97492   0.25097   Biso      1.000     C          0.643946  
         C54       1.0000    0.86840   0.21381   0.04668   Biso      1.000     C          -0.149981           
         C55       1.0000    0.30825   0.23943   0.41570   Biso      1.000     C          0.6439729999999999  
         C56       1.0000    0.35106   0.18309   0.97344   Biso      1.000     C          -0.202015           
         C57       1.0000    0.33897   0.21815   0.09342   Biso      1.000     C          0.303786  
         C58       1.0000    0.32125   0.20173   0.28665   Biso      1.000     C          -0.150071           
         C59       1.0000    0.00564   0.55148   0.42675   Biso      1.000     C          0.303872  
         C60       1.0000    0.90610   0.26451   0.91763   Biso      1.000     C          0.644713  
         C61       1.0000    0.31561   0.15024   0.35989   Biso      1.000     C          -0.201238           
         C62       1.0000    0.20173   0.88048   0.71335   Biso      1.000     C          -0.150145           
         C63       1.0000    0.76057   0.06882   0.41570   Biso      1.000     C          0.643998  
         C64       1.0000    0.73549   0.64158   0.91763   Biso      1.000     C          0.64458   
         C65       1.0000    0.81691   0.16797   0.97344   Biso      1.000     C          -0.202066           
         C66       1.0000    0.23943   0.93118   0.58430   Biso      1.000     C          0.643998  
         C67       1.0000    0.78185   0.12082   0.09342   Biso      1.000     C          0.30382800000000004           
         C68       1.0000    0.21815   0.87918   0.90658   Biso      1.000     C          0.303827  
         C69       1.0000    0.79827   0.11952   0.28665   Biso      1.000     C          -0.150145           
         C70       1.0000    0.18309   0.83203   0.02656   Biso      1.000     C          -0.20206500000000002          
         C71       1.0000    0.44852   0.45415   0.42675   Biso      1.000     C          0.303817  
         C72       1.0000    0.46494   0.45285   0.61998   Biso      1.000     C          -0.149809           
         H1        1.0000    0.52917   0.49769   0.84329   Biso      1.000     H          0.132682  
         H2        1.0000    0.36482   0.19584   0.82338   Biso      1.000     H          0.132391  
         H3        1.0000    0.63518   0.80416   0.17662   Biso      1.000     H          0.132391  
         H4        1.0000    0.83565   0.69815   0.50995   Biso      1.000     H          0.132297  
         H5        1.0000    0.30185   0.13749   0.50995   Biso      1.000     H          0.132332  
         H6        1.0000    0.50231   0.03149   0.84329   Biso      1.000     H          0.132684  
         H7        1.0000    0.19584   0.83102   0.17662   Biso      1.000     H          0.132412  
         H8        1.0000    0.13749   0.83565   0.49005   Biso      1.000     H          0.132319  
         H9        1.0000    0.16435   0.30185   0.49005   Biso      1.000     H          0.132297  
         H10       1.0000    0.03149   0.52917   0.15671   Biso      1.000     H          0.132644  
         H11       1.0000    0.80416   0.16898   0.82338   Biso      1.000     H          0.132412  
         H12       1.0000    0.96851   0.47083   0.84329   Biso      1.000     H          0.132644  
         H13       1.0000    0.86251   0.16435   0.50995   Biso      1.000     H          0.132319  
         H14       1.0000    0.47083   0.50231   0.15671   Biso      1.000     H          0.132682  
         H15       1.0000    0.69815   0.86251   0.49005   Biso      1.000     H          0.132332  
         H16       1.0000    0.83102   0.63518   0.82338   Biso      1.000     H          0.1324    
         H17       1.0000    0.16898   0.36482   0.17662   Biso      1.000     H          0.1324    
         H18       1.0000    0.49769   0.96851   0.15671   Biso      1.000     H          0.132684  
         Mn1       1.0000    0.01844   0.29438   0.19036   Biso      1.000     Mn          1.059213  
         Mn2       1.0000    0.68510   0.62772   0.52370   Biso      1.000     Mn          1.058294  
         Mn3       1.0000    0.35177   0.96105   0.85703   Biso      1.000     Mn          1.059038  
         Mn4       1.0000    0.94261   0.31490   0.52370   Biso      1.000     Mn          1.05837   
         Mn5       1.0000    0.39072   0.35177   0.14297   Biso      1.000     Mn          1.059027  
         Mn6       1.0000    0.72405   0.01844   0.80964   Biso      1.000     Mn          1.0591959999999998  
         Mn7       1.0000    0.31490   0.37228   0.47630   Biso      1.000     Mn          1.058294  
         Mn8       1.0000    0.98156   0.70562   0.80964   Biso      1.000     Mn          1.059213  
         Mn9       1.0000    0.27595   0.98156   0.19036   Biso      1.000     Mn          1.0591959999999998  
         Mn10      1.0000    0.70562   0.72405   0.19036   Biso      1.000     Mn          1.059179  
         Mn11      1.0000    0.37228   0.05739   0.52370   Biso      1.000     Mn          1.058282  
         Mn12      1.0000    0.96105   0.60928   0.14297   Biso      1.000     Mn          1.059093  
         Mn13      1.0000    0.64823   0.03895   0.14297   Biso      1.000     Mn          1.059038  
         Mn14      1.0000    0.29438   0.27595   0.80964   Biso      1.000     Mn          1.059179  
         Mn15      1.0000    0.03895   0.39072   0.85703   Biso      1.000     Mn          1.059093  
         Mn16      1.0000    0.05739   0.68510   0.47630   Biso      1.000     Mn          1.05837   
         Mn17      1.0000    0.60928   0.64823   0.85703   Biso      1.000     Mn          1.059027  
         Mn18      1.0000    0.62772   0.94261   0.47630   Biso      1.000     Mn          1.058282  
         O1        1.0000    0.74310   0.67777   0.31083   Biso      1.000     O          -0.623267           
         O2        1.0000    0.95252   0.30584   0.98373   Biso      1.000     O          -0.59004  
         O3        1.0000    0.36082   0.98001   0.31707   Biso      1.000     O          -0.589414           
         O4        1.0000    0.61918   0.63918   0.31707   Biso      1.000     O          -0.589378           
         O5        1.0000    0.89130   0.26569   0.74343   Biso      1.000     O          -0.57348  
         O6        1.0000    0.69416   0.64667   0.98373   Biso      1.000     O          -0.589971           
         O7        1.0000    0.93468   0.25690   0.31083   Biso      1.000     O          -0.6232770000000001           
         O8        1.0000    0.07643   0.34444   0.97750   Biso      1.000     O          -0.624282           
         O9        1.0000    0.06764   0.29227   0.41010   Biso      1.000     O          -0.573525           
         O10       1.0000    0.60134   0.59024   0.64417   Biso      1.000     O          -0.624029           
         O11       1.0000    0.55796   0.59903   0.07677   Biso      1.000     O          -0.57302  
         O12       1.0000    0.73431   0.62560   0.74343   Biso      1.000     O          -0.5734819999999999           
         O13       1.0000    0.02749   0.31334   0.65040   Biso      1.000     O          -0.589634           
         O14       1.0000    0.25690   0.32223   0.68917   Biso      1.000     O          -0.623267           
         O15       1.0000    0.22463   0.93236   0.41010   Biso      1.000     O          -0.573481           
         O16       1.0000    0.04748   0.69416   0.01627   Biso      1.000     O          -0.59004  
         O17       1.0000    0.39866   0.40976   0.35583   Biso      1.000     O          -0.624029           
         O18       1.0000    0.44204   0.40097   0.92323   Biso      1.000     O          -0.57302  
         O19       1.0000    0.38082   0.36082   0.68293   Biso      1.000     O          -0.589378           
         O20       1.0000    0.73199   0.07643   0.02250   Biso      1.000     O          -0.624311           
         O21       1.0000    0.77537   0.06764   0.58990   Biso      1.000     O          -0.573481           
         O22       1.0000    0.71415   0.02749   0.34960   Biso      1.000     O          -0.589637           
         O23       1.0000    0.10870   0.73431   0.25657   Biso      1.000     O          -0.57348  
         O24       1.0000    0.67777   0.93468   0.68917   Biso      1.000     O          -0.623268           
         O25       1.0000    0.64667   0.95252   0.01627   Biso      1.000     O          -0.589867           
         O26       1.0000    0.01111   0.60134   0.35583   Biso      1.000     O          -0.624207           
         O27       1.0000    0.95894   0.55796   0.92323   Biso      1.000     O          -0.573213           
         O28       1.0000    0.98001   0.61918   0.68293   Biso      1.000     O          -0.589162           
         O29       1.0000    0.34444   0.26801   0.02250   Biso      1.000     O          -0.62429  
         O30       1.0000    0.29227   0.22463   0.58990   Biso      1.000     O          -0.573444           
         O31       1.0000    0.31334   0.28585   0.34960   Biso      1.000     O          -0.5896710000000001           
         O32       1.0000    0.62560   0.89130   0.25657   Biso      1.000     O          -0.573381           
         O33       1.0000    0.06532   0.74310   0.68917   Biso      1.000     O          -0.6232770000000001           
         O34       1.0000    0.97251   0.68666   0.34960   Biso      1.000     O          -0.589634           
         O35       1.0000    0.93236   0.70773   0.58990   Biso      1.000     O          -0.573525           
         O36       1.0000    0.28585   0.97251   0.65040   Biso      1.000     O          -0.589637           
         O37       1.0000    0.98889   0.39866   0.64417   Biso      1.000     O          -0.624207           
         O38       1.0000    0.04106   0.44204   0.07677   Biso      1.000     O          -0.573213           
         O39       1.0000    0.01999   0.38082   0.31707   Biso      1.000     O          -0.589162           
         O40       1.0000    0.32223   0.06532   0.31083   Biso      1.000     O          -0.623268           
         O41       1.0000    0.37440   0.10870   0.74343   Biso      1.000     O          -0.573381           
         O42       1.0000    0.35333   0.04748   0.98373   Biso      1.000     O          -0.589867           
         O43       1.0000    0.65556   0.73199   0.97750   Biso      1.000     O          -0.62429  
         O44       1.0000    0.70773   0.77537   0.41010   Biso      1.000     O          -0.573444           
         O45       1.0000    0.68666   0.71415   0.65040   Biso      1.000     O          -0.5896710000000001           
         O46       1.0000    0.40097   0.95894   0.07677   Biso      1.000     O          -0.573206           
         O47       1.0000    0.26569   0.37440   0.25657   Biso      1.000     O          -0.5734819999999999           
         O48       1.0000    0.30584   0.35333   0.01627   Biso      1.000     O          -0.58997  
         O49       1.0000    0.59024   0.98889   0.35583   Biso      1.000     O          -0.624085           
         O50       1.0000    0.59903   0.04106   0.92323   Biso      1.000     O          -0.573206           
         O51       1.0000    0.63918   0.01999   0.68293   Biso      1.000     O          -0.589414           
         O52       1.0000    0.92357   0.65556   0.02250   Biso      1.000     O          -0.624282           
         O53       1.0000    0.26801   0.92357   0.97750   Biso      1.000     O          -0.624311           
         O54       1.0000    0.40976   0.01111   0.64417   Biso      1.000     O          -0.624085 