
##########################################################################
#               Crystallographic Information Format file
#               Produced by PyCifRW module
#
#  This is a CIF file.  CIF has been adopted by the International
#  Union of Crystallography as the standard for data archiving and
#  transmission.
#
#  For information on this file format, follow the CIF links at
#  http://www.iucr.org
##########################################################################

data_image0

_cell_length_a                          9.665
_cell_length_b                          10.2569
_cell_length_c                          10.3455
_cell_angle_alpha                       119.717
_cell_angle_beta                        94.5181
_cell_angle_gamma                       90
_symmetry_space_group_name_H-M          'P 1'
_symmetry_int_tables_number             1
loop_
  _symmetry_equiv_pos_as_xyz
         'x, y, z' 
loop_
  _atom_site_label
  _atom_site_occupancy
  _atom_site_fract_x
  _atom_site_fract_y
  _atom_site_fract_z
  _atom_site_thermal_displace_type
  _atom_site_B_iso_or_equiv
  _atom_site_type_symbol
  _atom_site_charge
         C1        1.0000    0.02920   0.99553   0.77966   Biso      1.000     C          0.673705  
         C2        1.0000    0.61270   0.43855   0.41930   Biso      1.000     C          -0.22846100000000003          
         C3        1.0000    0.36940   0.42476   0.44852   Biso      1.000     C          0.315731  
         C4        1.0000    0.48420   0.36261   0.36602   Biso      1.000     C          -0.165871           
         C5        1.0000    0.47080   0.21587   0.22034   Biso      1.000     C          0.673705  
         C6        1.0000    0.88730   0.01925   0.58070   Biso      1.000     C          -0.22846  
         C7        1.0000    0.13060   0.97624   0.55148   Biso      1.000     C          0.315739  
         C8        1.0000    0.01580   0.99659   0.63398   Biso      1.000     C          -0.165876           
         C9        1.0000    0.38730   0.56145   0.58070   Biso      1.000     C          -0.22846100000000003          
         C10       1.0000    0.63060   0.57524   0.55148   Biso      1.000     C          0.315731  
         C11       1.0000    0.97080   0.00447   0.22034   Biso      1.000     C          0.673705  
         C12       1.0000    0.98420   0.00341   0.36602   Biso      1.000     C          -0.165878           
         C13       1.0000    0.86940   0.02376   0.44852   Biso      1.000     C          0.315739  
         C14       1.0000    0.11270   0.98075   0.41930   Biso      1.000     C          -0.228458           
         C15       1.0000    0.52920   0.78413   0.77966   Biso      1.000     C          0.673705  
         C16       1.0000    0.51580   0.63739   0.63398   Biso      1.000     C          -0.165871           
         Ca1       1.0000    0.75000   0.07825   0.00000   Biso      1.000     Ca          1.4849860000000001  
         Ca2       1.0000    0.25000   0.92175   0.00000   Biso      1.000     Ca          1.4849860000000001  
         H1        1.0000    0.24130   0.27910   0.32420   Biso      1.000     H          0.39666999999999997           
         H2        1.0000    0.81110   0.03170   0.63480   Biso      1.000     H          0.135602  
         H3        1.0000    0.25870   0.95490   0.67580   Biso      1.000     H          0.396677  
         H4        1.0000    0.31110   0.60310   0.63480   Biso      1.000     H          0.135602  
         H5        1.0000    0.75870   0.72090   0.67580   Biso      1.000     H          0.39666999999999997           
         H6        1.0000    0.18890   0.96830   0.36520   Biso      1.000     H          0.135602  
         H7        1.0000    0.74130   0.04510   0.32420   Biso      1.000     H          0.396677  
         H8        1.0000    0.68890   0.39690   0.36520   Biso      1.000     H          0.135602  
         O1        1.0000    0.34900   0.15809   0.17058   Biso      1.000     O          -0.670772           
         O2        1.0000    0.92416   0.00622   0.84384   Biso      1.000     O          -0.6849569999999999           
         O3        1.0000    0.25930   0.95016   0.59432   Biso      1.000     O          -0.514147           
         O4        1.0000    0.15100   0.98751   0.82942   Biso      1.000     O          -0.670775           
         O5        1.0000    0.42416   0.83762   0.84384   Biso      1.000     O          -0.68496  
         O6        1.0000    0.74070   0.04984   0.40568   Biso      1.000     O          -0.514147           
         O7        1.0000    0.65100   0.84191   0.82942   Biso      1.000     O          -0.670772           
         O8        1.0000    0.07584   0.99378   0.15616   Biso      1.000     O          -0.6849569999999999           
         O9        1.0000    0.84900   0.01249   0.17058   Biso      1.000     O          -0.670775           
         O10       1.0000    0.24070   0.35584   0.40568   Biso      1.000     O          -0.514137           
         O11       1.0000    0.75930   0.64416   0.59432   Biso      1.000     O          -0.514137           
         O12       1.0000    0.57584   0.16238   0.15616   Biso      1.000     O          -0.68496 