
##########################################################################
#               Crystallographic Information Format file
#               Produced by PyCifRW module
#
#  This is a CIF file.  CIF has been adopted by the International
#  Union of Crystallography as the standard for data archiving and
#  transmission.
#
#  For information on this file format, follow the CIF links at
#  http://www.iucr.org
##########################################################################

data_image0

_cell_length_a                          6.7299
_cell_length_b                          10.9375
_cell_length_c                          18.584
_cell_angle_alpha                       90
_cell_angle_beta                        90
_cell_angle_gamma                       90
_symmetry_space_group_name_H-M          'P 1'
_symmetry_int_tables_number             1
loop_
  _symmetry_equiv_pos_as_xyz
         'x, y, z' 
loop_
  _atom_site_label
  _atom_site_occupancy
  _atom_site_fract_x
  _atom_site_fract_y
  _atom_site_fract_z
  _atom_site_thermal_displace_type
  _atom_site_B_iso_or_equiv
  _atom_site_type_symbol
  _atom_site_charge
         C1        1.0000    0.07430   0.80230   0.68920   Biso      1.000     C          -0.11762  
         C2        1.0000    0.57430   0.19770   0.31080   Biso      1.000     C          -0.11762  
         C3        1.0000    0.57600   0.24140   0.24130   Biso      1.000     C          -0.103104           
         C4        1.0000    0.07430   0.30230   0.81080   Biso      1.000     C          -0.11762  
         C5        1.0000    0.07600   0.25860   0.74130   Biso      1.000     C          -0.103104           
         C6        1.0000    0.92570   0.19770   0.31080   Biso      1.000     C          -0.11762  
         C7        1.0000    0.92400   0.24140   0.24130   Biso      1.000     C          -0.103104           
         C8        1.0000    0.57430   0.69770   0.18920   Biso      1.000     C          -0.11762  
         C9        1.0000    0.57600   0.74140   0.25870   Biso      1.000     C          -0.103104           
         C10       1.0000    0.42570   0.80230   0.68920   Biso      1.000     C          -0.11762  
         C11       1.0000    0.42400   0.75860   0.75870   Biso      1.000     C          -0.103104           
         C12       1.0000    0.07600   0.75860   0.75870   Biso      1.000     C          -0.103104           
         C13       1.0000    0.92400   0.74140   0.25870   Biso      1.000     C          -0.10310799999999999          
         C14       1.0000    0.92570   0.69770   0.18920   Biso      1.000     C          -0.11761600000000001          
         C15       1.0000    0.25000   0.69370   0.87140   Biso      1.000     C          0.572248  
         C16       1.0000    0.25000   0.73660   0.79370   Biso      1.000     C          0.01376   
         C17       1.0000    0.25000   0.82740   0.65360   Biso      1.000     C          -0.035711           
         C18       1.0000    0.25000   0.88310   0.58070   Biso      1.000     C          0.649705  
         C19       1.0000    0.75000   0.80630   0.37140   Biso      1.000     C          0.572248  
         C20       1.0000    0.75000   0.76340   0.29370   Biso      1.000     C          0.013761  
         C21       1.0000    0.75000   0.67260   0.15360   Biso      1.000     C          -0.035711           
         C22       1.0000    0.75000   0.61690   0.08070   Biso      1.000     C          0.649704  
         C23       1.0000    0.75000   0.30630   0.12860   Biso      1.000     C          0.572248  
         C24       1.0000    0.75000   0.26340   0.20630   Biso      1.000     C          0.01376   
         C25       1.0000    0.75000   0.17260   0.34640   Biso      1.000     C          -0.035711           
         C26       1.0000    0.75000   0.11690   0.41930   Biso      1.000     C          0.649705  
         C27       1.0000    0.25000   0.19370   0.62860   Biso      1.000     C          0.572249  
         C28       1.0000    0.25000   0.23660   0.70630   Biso      1.000     C          0.013753  
         C29       1.0000    0.25000   0.32740   0.84640   Biso      1.000     C          -0.035712           
         C30       1.0000    0.25000   0.38310   0.91930   Biso      1.000     C          0.649705  
         C31       1.0000    0.42400   0.25860   0.74130   Biso      1.000     C          -0.1031   
         C32       1.0000    0.42570   0.30230   0.81080   Biso      1.000     C          -0.11761600000000001          
         Ca1       1.0000    0.25000   0.59047   0.01348   Biso      1.000     Ca          1.470703  
         Ca2       1.0000    0.75000   0.40953   0.98652   Biso      1.000     Ca          1.470703  
         Ca3       1.0000    0.75000   0.90953   0.51348   Biso      1.000     Ca          1.470703  
         Ca4       1.0000    0.25000   0.09047   0.48652   Biso      1.000     Ca          1.470703  
         H1        1.0000    0.04630   0.68500   0.16590   Biso      1.000     H          0.10018300000000001           
         H2        1.0000    0.54370   0.74380   0.78220   Biso      1.000     H          0.12408599999999999           
         H3        1.0000    0.54630   0.81500   0.66590   Biso      1.000     H          0.10018300000000001           
         H4        1.0000    0.45630   0.75620   0.28220   Biso      1.000     H          0.12408599999999999           
         H5        1.0000    0.04370   0.25620   0.21780   Biso      1.000     H          0.12408599999999999           
         H6        1.0000    0.04630   0.18500   0.33410   Biso      1.000     H          0.10018300000000001           
         H7        1.0000    0.45370   0.68500   0.16590   Biso      1.000     H          0.10018300000000001           
         H8        1.0000    0.95370   0.31500   0.83410   Biso      1.000     H          0.10018300000000001           
         H9        1.0000    0.45630   0.25620   0.21780   Biso      1.000     H          0.12408599999999999           
         H10       1.0000    0.45370   0.18500   0.33410   Biso      1.000     H          0.10018300000000001           
         H11       1.0000    0.54370   0.24380   0.71780   Biso      1.000     H          0.12408599999999999           
         H12       1.0000    0.54630   0.31500   0.83410   Biso      1.000     H          0.10018300000000001           
         H13       1.0000    0.95630   0.74380   0.78220   Biso      1.000     H          0.12408599999999999           
         H14       1.0000    0.95370   0.81500   0.66590   Biso      1.000     H          0.10018300000000001           
         H15       1.0000    0.04370   0.75620   0.28220   Biso      1.000     H          0.12408599999999999           
         H16       1.0000    0.95630   0.24380   0.71780   Biso      1.000     H          0.12408599999999999           
         O1        1.0000    0.91190   0.32160   0.09707   Biso      1.000     O          -0.649017           
         O2        1.0000    0.41230   0.90980   0.55109   Biso      1.000     O          -0.689879           
         O3        1.0000    0.41190   0.67840   0.90293   Biso      1.000     O          -0.649018           
         O4        1.0000    0.08770   0.40980   0.94891   Biso      1.000     O          -0.68988  
         O5        1.0000    0.08810   0.17840   0.59707   Biso      1.000     O          -0.649018           
         O6        1.0000    0.91230   0.09020   0.44891   Biso      1.000     O          -0.68988  
         O7        1.0000    0.41230   0.40980   0.94891   Biso      1.000     O          -0.68988  
         O8        1.0000    0.58810   0.82160   0.40293   Biso      1.000     O          -0.649018           
         O9        1.0000    0.58770   0.09020   0.44891   Biso      1.000     O          -0.689879           
         O10       1.0000    0.58810   0.32160   0.09707   Biso      1.000     O          -0.649018           
         O11       1.0000    0.91230   0.59020   0.05109   Biso      1.000     O          -0.68988  
         O12       1.0000    0.91190   0.82160   0.40293   Biso      1.000     O          -0.649017           
         O13       1.0000    0.08770   0.90980   0.55109   Biso      1.000     O          -0.6898810000000001           
         O14       1.0000    0.08810   0.67840   0.90293   Biso      1.000     O          -0.649018           
         O15       1.0000    0.41190   0.17840   0.59707   Biso      1.000     O          -0.649017           
         O16       1.0000    0.58770   0.59020   0.05109   Biso      1.000     O          -0.689879 