
##########################################################################
#               Crystallographic Information Format file
#               Produced by PyCifRW module
#
#  This is a CIF file.  CIF has been adopted by the International
#  Union of Crystallography as the standard for data archiving and
#  transmission.
#
#  For information on this file format, follow the CIF links at
#  http://www.iucr.org
##########################################################################

data_image0

_cell_length_a                          8.3328
_cell_length_b                          8.6794
_cell_length_c                          9.9393
_cell_angle_alpha                       70.52
_cell_angle_beta                        84.459
_cell_angle_gamma                       73.722
_symmetry_space_group_name_H-M          'P 1'
_symmetry_int_tables_number             1
loop_
  _symmetry_equiv_pos_as_xyz
         'x, y, z' 
loop_
  _atom_site_label
  _atom_site_occupancy
  _atom_site_fract_x
  _atom_site_fract_y
  _atom_site_fract_z
  _atom_site_thermal_displace_type
  _atom_site_B_iso_or_equiv
  _atom_site_type_symbol
  _atom_site_charge
         C1        1.0000    0.04890   0.52350   0.77590   Biso      1.000     C          0.664429  
         C2        1.0000    0.13080   0.04730   0.03830   Biso      1.000     C          0.328782  
         C3        1.0000    0.02670   0.84140   0.98510   Biso      1.000     C          -0.212293           
         C4        1.0000    0.15850   0.88690   0.02390   Biso      1.000     C          -0.14082  
         C5        1.0000    0.33080   0.76790   0.04260   Biso      1.000     C          0.627173  
         C6        1.0000    0.16230   0.47130   0.54540   Biso      1.000     C          0.31708   
         C7        1.0000    0.86680   0.53480   0.58650   Biso      1.000     C          -0.234356           
         C8        1.0000    0.02640   0.50830   0.63420   Biso      1.000     C          -0.163974           
         C9        1.0000    0.86920   0.95270   0.96170   Biso      1.000     C          0.328786  
         C10       1.0000    0.97330   0.15860   0.01490   Biso      1.000     C          -0.212289           
         C11       1.0000    0.95110   0.47650   0.22410   Biso      1.000     C          0.664429  
         C12       1.0000    0.97360   0.49170   0.36580   Biso      1.000     C          -0.163977           
         C13       1.0000    0.13320   0.46520   0.41350   Biso      1.000     C          -0.234351           
         C14       1.0000    0.83770   0.52870   0.45460   Biso      1.000     C          0.317084  
         C15       1.0000    0.66920   0.23210   0.95740   Biso      1.000     C          0.627173  
         C16       1.0000    0.84150   0.11310   0.97610   Biso      1.000     C          -0.140821           
         Ca1       1.0000    0.32648   0.36337   0.04249   Biso      1.000     Ca          1.437888  
         Ca2       1.0000    0.67352   0.63663   0.95751   Biso      1.000     Ca          1.437889  
         H1        1.0000    0.34550   0.02340   0.07930   Biso      1.000     H          0.409322  
         H2        1.0000    0.32420   0.44240   0.66680   Biso      1.000     H          0.39496   
         H3        1.0000    0.77610   0.55740   0.64580   Biso      1.000     H          0.129778  
         H4        1.0000    0.95510   0.26490   0.02510   Biso      1.000     H          0.143814  
         H5        1.0000    0.65450   0.97660   0.92070   Biso      1.000     H          0.409322  
         H6        1.0000    0.67580   0.55760   0.33320   Biso      1.000     H          0.39496   
         H7        1.0000    0.22390   0.44260   0.35420   Biso      1.000     H          0.129778  
         H8        1.0000    0.04490   0.73510   0.97490   Biso      1.000     H          0.143814  
         O1        1.0000    0.35410   0.62280   0.03460   Biso      1.000     O          -0.685996           
         O2        1.0000    0.45030   0.82090   0.06150   Biso      1.000     O          -0.615908           
         O3        1.0000    0.19700   0.47610   0.82280   Biso      1.000     O          -0.662406           
         O4        1.0000    0.92360   0.58110   0.84040   Biso      1.000     O          -0.66024  
         O5        1.0000    0.74250   0.90320   0.92480   Biso      1.000     O          -0.562793           
         O6        1.0000    0.80300   0.52390   0.17720   Biso      1.000     O          -0.662406           
         O7        1.0000    0.64590   0.37720   0.96540   Biso      1.000     O          -0.685996           
         O8        1.0000    0.54970   0.17910   0.93850   Biso      1.000     O          -0.615908           
         O9        1.0000    0.07640   0.41890   0.15960   Biso      1.000     O          -0.66024  
         O10       1.0000    0.32290   0.43920   0.58530   Biso      1.000     O          -0.514446           
         O11       1.0000    0.67710   0.56080   0.41470   Biso      1.000     O          -0.514446           
         O12       1.0000    0.25750   0.09680   0.07520   Biso      1.000     O          -0.562793 