
##########################################################################
#               Crystallographic Information Format file
#               Produced by PyCifRW module
#
#  This is a CIF file.  CIF has been adopted by the International
#  Union of Crystallography as the standard for data archiving and
#  transmission.
#
#  For information on this file format, follow the CIF links at
#  http://www.iucr.org
##########################################################################

data_image0

_cell_length_a                          11.436
_cell_length_b                          13.3717
_cell_length_c                          18.386
_cell_angle_alpha                       100.389
_cell_angle_beta                        90
_cell_angle_gamma                       115.317
_symmetry_space_group_name_H-M          'P 1'
_symmetry_int_tables_number             1
loop_
  _symmetry_equiv_pos_as_xyz
         'x, y, z' 
loop_
  _atom_site_label
  _atom_site_occupancy
  _atom_site_fract_x
  _atom_site_fract_y
  _atom_site_fract_z
  _atom_site_thermal_displace_type
  _atom_site_B_iso_or_equiv
  _atom_site_type_symbol
  _atom_site_charge
         C1        1.0000    0.28561   0.05522   0.10457   Biso      1.000     C          -0.159947           
         C2        1.0000    0.98602   0.67004   0.05750   Biso      1.000     C          -0.196375           
         C3        1.0000    0.01884   0.61668   0.10677   Biso      1.000     C          0.11136099999999999           
         C4        1.0000    0.92711   0.56682   0.15408   Biso      1.000     C          -0.180849           
         C5        1.0000    0.80842   0.56944   0.14983   Biso      1.000     C          0.100649  
         C6        1.0000    0.14558   0.61096   0.10644   Biso      1.000     C          0.11199500000000001           
         C7        1.0000    0.25603   0.69686   0.08780   Biso      1.000     C          -0.188606           
         C8        1.0000    0.36991   0.68622   0.08370   Biso      1.000     C          0.097697  
         C9        1.0000    0.86466   0.66892   0.05619   Biso      1.000     C          0.089335  
         C10       1.0000    0.27856   0.51632   0.11780   Biso      1.000     C          0.09323   
         C11       1.0000    0.90715   0.34450   0.55607   Biso      1.000     C          0.5905819999999999  
         C12       1.0000    0.84994   0.25128   0.59876   Biso      1.000     C          -0.027875           
         C13       1.0000    0.82742   0.27484   0.67266   Biso      1.000     C          -0.091415           
         C14       1.0000    0.77952   0.19044   0.71278   Biso      1.000     C          -0.157373           
         C15       1.0000    0.75052   0.07984   0.67840   Biso      1.000     C          0.18035299999999999           
         C16       1.0000    0.76961   0.05522   0.60457   Biso      1.000     C          -0.160691           
         C17       1.0000    0.81930   0.14080   0.56429   Biso      1.000     C          -0.100573           
         C18       1.0000    0.15999   0.51978   0.12360   Biso      1.000     C          -0.182706           
         C19       1.0000    0.61154   0.89168   0.29940   Biso      1.000     C          -0.098287           
         C20       1.0000    0.59658   0.96776   0.35620   Biso      1.000     C          -0.154371           
         C21       1.0000    0.53845   0.93230   0.41713   Biso      1.000     C          0.172789  
         C22       1.0000    0.40216   0.38332   0.39323   Biso      1.000     C          0.10986900000000001           
         C23       1.0000    0.36029   0.43318   0.34592   Biso      1.000     C          -0.181946           
         C24       1.0000    0.23898   0.43056   0.35017   Biso      1.000     C          0.100746  
         C25       1.0000    0.53462   0.38904   0.39356   Biso      1.000     C          0.11436199999999999           
         C26       1.0000    0.55917   0.30314   0.41220   Biso      1.000     C          -0.190707           
         C27       1.0000    0.68369   0.31378   0.41630   Biso      1.000     C          0.097687  
         C28       1.0000    0.76224   0.48368   0.38220   Biso      1.000     C          0.095327  
         C29       1.0000    0.64021   0.48022   0.37640   Biso      1.000     C          -0.184021           
         C30       1.0000    0.40134   0.25128   0.09876   Biso      1.000     C          -0.027657           
         C31       1.0000    0.44742   0.27484   0.17266   Biso      1.000     C          -0.092044           
         C32       1.0000    0.41092   0.19044   0.21278   Biso      1.000     C          -0.15692  
         C33       1.0000    0.32932   0.07984   0.17840   Biso      1.000     C          0.179775  
         C34       1.0000    0.32150   0.14080   0.06429   Biso      1.000     C          -0.100393           
         C35       1.0000    0.58555   0.70010   0.23912   Biso      1.000     C          0.563574  
         C36       1.0000    0.57097   0.78154   0.30318   Biso      1.000     C          -0.006594           
         C37       1.0000    0.51337   0.74634   0.36540   Biso      1.000     C          -0.108341           
         C38       1.0000    0.49572   0.82104   0.42190   Biso      1.000     C          -0.17404  
         C39       1.0000    0.11455   0.70010   0.73912   Biso      1.000     C          0.561765  
         C40       1.0000    0.31598   0.32996   0.44250   Biso      1.000     C          -0.195997           
         C41       1.0000    0.21057   0.78154   0.80318   Biso      1.000     C          -0.006947           
         C42       1.0000    0.32532   0.82104   0.92190   Biso      1.000     C          -0.17263199999999998          
         C43       1.0000    0.42903   0.21846   0.69682   Biso      1.000     C          -0.006606           
         C44       1.0000    0.48663   0.25366   0.63460   Biso      1.000     C          -0.108339           
         C45       1.0000    0.50428   0.17896   0.57810   Biso      1.000     C          -0.174048           
         C46       1.0000    0.46155   0.06770   0.58287   Biso      1.000     C          0.172794  
         C47       1.0000    0.40342   0.03224   0.64380   Biso      1.000     C          -0.154364           
         C48       1.0000    0.38846   0.10832   0.70060   Biso      1.000     C          -0.098273           
         C49       1.0000    0.13534   0.33108   0.94381   Biso      1.000     C          0.08933300000000001           
         C50       1.0000    0.41445   0.29990   0.76088   Biso      1.000     C          0.563574  
         C51       1.0000    0.01398   0.32996   0.94250   Biso      1.000     C          -0.196374           
         C52       1.0000    0.07289   0.43318   0.84592   Biso      1.000     C          -0.180849           
         C53       1.0000    0.19158   0.43056   0.85017   Biso      1.000     C          0.100649  
         C54       1.0000    0.85442   0.38904   0.89356   Biso      1.000     C          0.11199500000000001           
         C55       1.0000    0.74397   0.30314   0.91220   Biso      1.000     C          -0.188606           
         C56       1.0000    0.63009   0.31378   0.91630   Biso      1.000     C          0.09769800000000001           
         C57       1.0000    0.72144   0.48368   0.88220   Biso      1.000     C          0.09323   
         C58       1.0000    0.84001   0.48022   0.87640   Biso      1.000     C          -0.182706           
         C59       1.0000    0.98116   0.38332   0.89323   Biso      1.000     C          0.11135999999999999           
         C60       1.0000    0.67850   0.85920   0.93571   Biso      1.000     C          -0.100399           
         C61       1.0000    0.71439   0.94478   0.89543   Biso      1.000     C          -0.159944           
         C62       1.0000    0.67068   0.92016   0.82160   Biso      1.000     C          0.179764  
         C63       1.0000    0.39385   0.93230   0.91713   Biso      1.000     C          0.172646  
         C64       1.0000    0.37118   0.96776   0.85620   Biso      1.000     C          -0.155648           
         C65       1.0000    0.28014   0.89168   0.79940   Biso      1.000     C          -0.098767           
         C66       1.0000    0.80426   0.66892   0.55619   Biso      1.000     C          0.089912  
         C67       1.0000    0.68402   0.67004   0.55750   Biso      1.000     C          -0.195992           
         C68       1.0000    0.59784   0.61668   0.60677   Biso      1.000     C          0.10986800000000001           
         C69       1.0000    0.63971   0.56682   0.65408   Biso      1.000     C          -0.181946           
         C70       1.0000    0.76102   0.56944   0.64983   Biso      1.000     C          0.100746  
         C71       1.0000    0.46538   0.61096   0.60644   Biso      1.000     C          0.11436199999999999           
         C72       1.0000    0.44083   0.69686   0.58780   Biso      1.000     C          -0.190706           
         C73       1.0000    0.31631   0.68622   0.58370   Biso      1.000     C          0.097687  
         C74       1.0000    0.23776   0.51632   0.61780   Biso      1.000     C          0.095327  
         C75       1.0000    0.35979   0.51978   0.62360   Biso      1.000     C          -0.184021           
         C76       1.0000    0.56265   0.65550   0.94393   Biso      1.000     C          0.5917140000000001  
         C77       1.0000    0.59866   0.74872   0.90124   Biso      1.000     C          -0.027655000000000002         
         C78       1.0000    0.55258   0.72516   0.82734   Biso      1.000     C          -0.092045           
         C79       1.0000    0.58908   0.80956   0.78722   Biso      1.000     C          -0.156916           
         C80       1.0000    0.23297   0.74634   0.86540   Biso      1.000     C          -0.10871600000000001          
         C81       1.0000    0.19574   0.33108   0.44381   Biso      1.000     C          0.089916  
         C82       1.0000    0.43735   0.34450   0.05607   Biso      1.000     C          0.5917140000000001  
         C83       1.0000    0.62882   0.03224   0.14380   Biso      1.000     C          -0.155659           
         C84       1.0000    0.71986   0.10832   0.20060   Biso      1.000     C          -0.09877799999999999          
         C85       1.0000    0.15006   0.74872   0.40124   Biso      1.000     C          -0.027875999999999998         
         C86       1.0000    0.17258   0.72516   0.32734   Biso      1.000     C          -0.091415           
         C87       1.0000    0.22048   0.80956   0.28722   Biso      1.000     C          -0.157369           
         C88       1.0000    0.24948   0.92016   0.32160   Biso      1.000     C          0.180343  
         C89       1.0000    0.23039   0.94478   0.39543   Biso      1.000     C          -0.160695           
         C90       1.0000    0.09285   0.65550   0.44393   Biso      1.000     C          0.590583  
         C91       1.0000    0.88545   0.29990   0.26088   Biso      1.000     C          0.561764  
         C92       1.0000    0.78943   0.21846   0.19682   Biso      1.000     C          -0.006934999999999999         
         C93       1.0000    0.76703   0.25366   0.13460   Biso      1.000     C          -0.10871900000000001          
         C94       1.0000    0.67468   0.17896   0.07810   Biso      1.000     C          -0.172629           
         C95       1.0000    0.60615   0.06770   0.08287   Biso      1.000     C          0.172649  
         C96       1.0000    0.18070   0.85920   0.43571   Biso      1.000     C          -0.10057  
         H1        1.0000    0.23210   0.98120   0.08160   Biso      1.000     H          0.121702  
         H2        1.0000    0.29210   0.12420   0.01440   Biso      1.000     H          0.12166700000000001           
         H3        1.0000    0.48580   0.67140   0.36950   Biso      1.000     H          0.10566800000000001           
         H4        1.0000    0.45480   0.79580   0.46320   Biso      1.000     H          0.105327  
         H5        1.0000    0.62630   0.04300   0.35260   Biso      1.000     H          0.12114200000000001           
         H6        1.0000    0.65030   0.91680   0.25760   Biso      1.000     H          0.112982  
         H7        1.0000    0.94570   0.53160   0.18870   Biso      1.000     H          0.134735  
         H8        1.0000    0.04560   0.70640   0.02560   Biso      1.000     H          0.129405  
         H9        1.0000    0.25260   0.76160   0.07810   Biso      1.000     H          0.12376300000000001           
         H10       1.0000    0.44230   0.74500   0.07120   Biso      1.000     H          0.09303600000000001           
         H11       1.0000    0.44050   0.20700   0.26260   Biso      1.000     H          0.108301  
         H12       1.0000    0.28630   0.45440   0.12930   Biso      1.000     H          0.097387  
         H13       1.0000    0.84410   0.70440   0.02250   Biso      1.000     H          0.099594  
         H14       1.0000    0.50350   0.34840   0.19520   Biso      1.000     H          0.120367  
         H15       1.0000    0.33920   0.29360   0.47440   Biso      1.000     H          0.12911   
         H16       1.0000    0.83190   0.54560   0.37070   Biso      1.000     H          0.096212  
         H17       1.0000    0.15510   0.65160   0.30480   Biso      1.000     H          0.12036600000000001           
         H18       1.0000    0.23350   0.79300   0.23740   Biso      1.000     H          0.108135  
         H19       1.0000    0.25090   0.01880   0.41840   Biso      1.000     H          0.12190799999999999           
         H20       1.0000    0.16790   0.87580   0.48560   Biso      1.000     H          0.122359  
         H21       1.0000    0.81440   0.32860   0.13050   Biso      1.000     H          0.10560499999999999           
         H22       1.0000    0.65900   0.20420   0.03680   Biso      1.000     H          0.104621  
         H23       1.0000    0.62890   0.53840   0.36120   Biso      1.000     H          0.134717  
         H24       1.0000    0.58330   0.95700   0.14740   Biso      1.000     H          0.122145  
         H25       1.0000    0.13970   0.29560   0.47750   Biso      1.000     H          0.09936299999999999           
         H26       1.0000    0.09050   0.46160   0.13880   Biso      1.000     H          0.13456600000000002           
         H27       1.0000    0.41410   0.46840   0.31130   Biso      1.000     H          0.13581500000000002           
         H28       1.0000    0.21270   0.46460   0.31790   Biso      1.000     H          0.101453  
         H29       1.0000    0.49100   0.23840   0.42190   Biso      1.000     H          0.12424   
         H30       1.0000    0.69730   0.25500   0.42880   Biso      1.000     H          0.093445  
         H31       1.0000    0.73350   0.08320   0.24240   Biso      1.000     H          0.114197  
         H32       1.0000    0.84490   0.34840   0.69520   Biso      1.000     H          0.12036600000000001           
         H33       1.0000    0.74810   0.53540   0.18210   Biso      1.000     H          0.101076  
         H34       1.0000    0.74910   0.98120   0.58160   Biso      1.000     H          0.12190899999999999           
         H35       1.0000    0.90950   0.53840   0.86120   Biso      1.000     H          0.13456600000000002           
         H36       1.0000    0.71370   0.54560   0.87070   Biso      1.000     H          0.097386  
         H37       1.0000    0.76650   0.20700   0.76260   Biso      1.000     H          0.108134  
         H38       1.0000    0.74740   0.23840   0.92190   Biso      1.000     H          0.12376300000000001           
         H39       1.0000    0.25190   0.46460   0.81790   Biso      1.000     H          0.101076  
         H40       1.0000    0.05430   0.46840   0.81130   Biso      1.000     H          0.134735  
         H41       1.0000    0.95440   0.29360   0.97440   Biso      1.000     H          0.129405  
         H42       1.0000    0.15590   0.29560   0.97750   Biso      1.000     H          0.099595  
         H43       1.0000    0.34970   0.08320   0.74240   Biso      1.000     H          0.11298   
         H44       1.0000    0.37370   0.95700   0.64740   Biso      1.000     H          0.12114200000000001           
         H45       1.0000    0.54520   0.20420   0.53680   Biso      1.000     H          0.105326  
         H46       1.0000    0.51420   0.32860   0.63050   Biso      1.000     H          0.10566800000000001           
         H47       1.0000    0.70790   0.87580   0.98560   Biso      1.000     H          0.12166800000000001           
         H48       1.0000    0.76790   0.01880   0.91840   Biso      1.000     H          0.121702  
         H49       1.0000    0.55770   0.25500   0.92880   Biso      1.000     H          0.093037  
         H50       1.0000    0.49650   0.65160   0.80480   Biso      1.000     H          0.120367  
         H51       1.0000    0.55950   0.79300   0.73740   Biso      1.000     H          0.108303  
         H52       1.0000    0.83210   0.12420   0.51440   Biso      1.000     H          0.122359  
         H53       1.0000    0.34100   0.79580   0.96320   Biso      1.000     H          0.10462   
         H54       1.0000    0.41670   0.04300   0.85260   Biso      1.000     H          0.122145  
         H55       1.0000    0.26650   0.91680   0.75760   Biso      1.000     H          0.114196  
         H56       1.0000    0.86030   0.70440   0.52250   Biso      1.000     H          0.099364  
         H57       1.0000    0.18560   0.67140   0.86950   Biso      1.000     H          0.10560399999999999           
         H58       1.0000    0.58590   0.53160   0.68870   Biso      1.000     H          0.13581500000000002           
         H59       1.0000    0.78730   0.53540   0.68210   Biso      1.000     H          0.101453  
         H60       1.0000    0.50900   0.76160   0.57810   Biso      1.000     H          0.124241  
         H61       1.0000    0.30270   0.74500   0.57120   Biso      1.000     H          0.093446  
         H62       1.0000    0.16810   0.45440   0.62930   Biso      1.000     H          0.096211  
         H63       1.0000    0.66080   0.70640   0.52560   Biso      1.000     H          0.129109  
         H64       1.0000    0.37110   0.46160   0.63880   Biso      1.000     H          0.134717  
         N1        1.0000    0.84335   0.61890   0.60127   Biso      1.000     N          -0.202079           
         N2        1.0000    0.21358   0.59616   0.59672   Biso      1.000     N          -0.213997           
         N3        1.0000    0.70325   0.98590   0.71539   Biso      1.000     N          -0.132511           
         N4        1.0000    0.61742   0.40384   0.90328   Biso      1.000     N          -0.21397800000000003          
         N5        1.0000    0.22445   0.38110   0.89873   Biso      1.000     N          -0.201727           
         N6        1.0000    0.71735   0.01410   0.78461   Biso      1.000     N          -0.131975           
         N7        1.0000    0.47474   0.98188   0.52741   Biso      1.000     N          -0.125076           
         N8        1.0000    0.52526   0.01812   0.47259   Biso      1.000     N          -0.12498800000000002          
         N9        1.0000    0.49286   0.01812   0.97259   Biso      1.000     N          -0.125279           
         N10       1.0000    0.28265   0.98590   0.21539   Biso      1.000     N          -0.13209300000000002          
         N11       1.0000    0.15665   0.38110   0.39873   Biso      1.000     N          -0.20207999999999998          
         N12       1.0000    0.77555   0.61890   0.10127   Biso      1.000     N          -0.201727           
         N13       1.0000    0.50714   0.98188   0.02741   Biso      1.000     N          -0.125186           
         N14       1.0000    0.29675   0.01410   0.28461   Biso      1.000     N          -0.132392           
         N15       1.0000    0.78642   0.40384   0.40328   Biso      1.000     N          -0.213996           
         N16       1.0000    0.38258   0.59616   0.09672   Biso      1.000     N          -0.21397800000000003          
         O1        1.0000    0.44322   0.39764   0.75520   Biso      1.000     O          -0.575706           
         O2        1.0000    0.48283   0.55946   0.91201   Biso      1.000     O          -0.56662  
         O3        1.0000    0.93452   0.31860   0.49116   Biso      1.000     O          -0.553901           
         O4        1.0000    0.62431   0.73916   0.18089   Biso      1.000     O          -0.565749           
         O5        1.0000    0.11485   0.73916   0.68089   Biso      1.000     O          -0.5644640000000001           
         O6        1.0000    0.04558   0.60236   0.74480   Biso      1.000     O          -0.5747399999999999           
         O7        1.0000    0.92337   0.44054   0.58799   Biso      1.000     O          -0.566217           
         O8        1.0000    0.38408   0.31860   0.99116   Biso      1.000     O          -0.554552           
         O9        1.0000    0.55678   0.60236   0.24480   Biso      1.000     O          -0.575706           
         O10       1.0000    0.61592   0.68140   0.00884   Biso      1.000     O          -0.554551           
         O11       1.0000    0.06548   0.68140   0.50884   Biso      1.000     O          -0.553901           
         O12       1.0000    0.88515   0.26084   0.31911   Biso      1.000     O          -0.5644640000000001           
         O13       1.0000    0.95442   0.39764   0.25520   Biso      1.000     O          -0.5747399999999999           
         O14       1.0000    0.07663   0.55946   0.41201   Biso      1.000     O          -0.566217           
         O15       1.0000    0.37569   0.26084   0.81911   Biso      1.000     O          -0.56575  
         O16       1.0000    0.51717   0.44054   0.08799   Biso      1.000     O          -0.56662  
         Zn1       1.0000    0.41927   0.39302   0.90319   Biso      1.000     Zn          0.819859  
         Zn2       1.0000    0.02625   0.60698   0.59681   Biso      1.000     Zn          0.819283  
         Zn3       1.0000    0.58073   0.60698   0.09681   Biso      1.000     Zn          0.819859  
         Zn4       1.0000    0.97375   0.39302   0.40319   Biso      1.000     Zn          0.819283 