
##########################################################################
#               Crystallographic Information Format file
#               Produced by PyCifRW module
#
#  This is a CIF file.  CIF has been adopted by the International
#  Union of Crystallography as the standard for data archiving and
#  transmission.
#
#  For information on this file format, follow the CIF links at
#  http://www.iucr.org
##########################################################################

data_image0

_cell_length_a                          11.7034
_cell_length_b                          11.9809
_cell_length_c                          12.5316
_cell_angle_alpha                       107.489
_cell_angle_beta                        106.574
_cell_angle_gamma                       112.341
_symmetry_space_group_name_H-M          'P 1'
_symmetry_int_tables_number             1
loop_
  _symmetry_equiv_pos_as_xyz
         'x, y, z' 
loop_
  _atom_site_label
  _atom_site_occupancy
  _atom_site_fract_x
  _atom_site_fract_y
  _atom_site_fract_z
  _atom_site_thermal_displace_type
  _atom_site_B_iso_or_equiv
  _atom_site_type_symbol
  _atom_site_charge
         Ag1       1.0000    0.59303   0.77539   0.39710   Biso      1.000     Ag          0.258186  
         Ag2       1.0000    0.26869   0.71138   0.12556   Biso      1.000     Ag          0.259586  
         Ag3       1.0000    0.30407   0.62171   0.39710   Biso      1.000     Ag          0.25792   
         Ag4       1.0000    0.35687   0.41418   0.12556   Biso      1.000     Ag          0.259652  
         Ag5       1.0000    0.40697   0.22461   0.60290   Biso      1.000     Ag          0.258188  
         Ag6       1.0000    0.73131   0.28862   0.87444   Biso      1.000     Ag          0.259586  
         Ag7       1.0000    0.69593   0.37829   0.60290   Biso      1.000     Ag          0.257921  
         Ag8       1.0000    0.64313   0.58582   0.87444   Biso      1.000     Ag          0.25965   
         C1        1.0000    0.30200   0.96100   0.35500   Biso      1.000     C          0.105675  
         C2        1.0000    0.34160   0.91980   0.50900   Biso      1.000     C          0.331161  
         C3        1.0000    0.91280   0.45710   0.29140   Biso      1.000     C          -0.436612           
         C4        1.0000    0.95270   0.51450   0.21080   Biso      1.000     C          -0.220747           
         C5        1.0000    0.03540   0.32890   0.99800   Biso      1.000     C          0.111779  
         C6        1.0000    0.01223   0.44873   0.13986   Biso      1.000     C          0.328064  
         C7        1.0000    0.90720   0.78140   0.64900   Biso      1.000     C          -0.431161           
         C8        1.0000    0.87860   0.83430   0.29140   Biso      1.000     C          -0.43632  
         C9        1.0000    0.55300   0.39400   0.35500   Biso      1.000     C          0.102389  
         C10       1.0000    0.66740   0.58920   0.50900   Biso      1.000     C          0.329281  
         C11       1.0000    0.37000   0.92780   0.63640   Biso      1.000     C          -0.226461           
         C12       1.0000    0.75810   0.69630   0.21080   Biso      1.000     C          -0.220635           
         C13       1.0000    0.46260   0.66910   0.99800   Biso      1.000     C          0.111545  
         C14       1.0000    0.62763   0.69113   0.13986   Biso      1.000     C          0.3294    
         C15       1.0000    0.76640   0.70860   0.63640   Biso      1.000     C          -0.225211           
         C16       1.0000    0.24180   0.86760   0.64900   Biso      1.000     C          -0.431327           
         C17       1.0000    0.37237   0.30887   0.86014   Biso      1.000     C          0.3294    
         C18       1.0000    0.53740   0.33090   0.00200   Biso      1.000     C          0.111545  
         C19       1.0000    0.75820   0.13240   0.35100   Biso      1.000     C          -0.431327           
         C20       1.0000    0.63000   0.07220   0.36360   Biso      1.000     C          -0.226462           
         C21       1.0000    0.69800   0.03900   0.64500   Biso      1.000     C          0.105675  
         C22       1.0000    0.65840   0.08020   0.49100   Biso      1.000     C          0.331162  
         C23       1.0000    0.04730   0.48550   0.78920   Biso      1.000     C          -0.220747           
         C24       1.0000    0.96460   0.67110   0.00200   Biso      1.000     C          0.111778  
         C25       1.0000    0.08720   0.54290   0.70860   Biso      1.000     C          -0.436612           
         C26       1.0000    0.09280   0.21860   0.35100   Biso      1.000     C          -0.431161           
         C27       1.0000    0.23360   0.29140   0.36360   Biso      1.000     C          -0.225211           
         C28       1.0000    0.44700   0.60600   0.64500   Biso      1.000     C          0.102388  
         C29       1.0000    0.33260   0.41080   0.49100   Biso      1.000     C          0.329282  
         C30       1.0000    0.12140   0.16570   0.70860   Biso      1.000     C          -0.43632  
         C31       1.0000    0.24190   0.30370   0.78920   Biso      1.000     C          -0.220634           
         C32       1.0000    0.98777   0.55127   0.86014   Biso      1.000     C          0.328064  
         H1        1.0000    0.15580   0.63760   0.75880   Biso      1.000     H          0.143494  
         H2        1.0000    0.80480   0.08280   0.36140   Biso      1.000     H          0.14641   
         H3        1.0000    0.73530   0.12770   0.26920   Biso      1.000     H          0.15017   
         H4        1.0000    0.58070   0.11950   0.34840   Biso      1.000     H          0.104913  
         H5        1.0000    0.57090   0.97770   0.30040   Biso      1.000     H          0.109483  
         H6        1.0000    0.71050   0.99590   0.69420   Biso      1.000     H          0.092325  
         H7        1.0000    0.00710   0.53230   0.64740   Biso      1.000     H          0.13817   
         H8        1.0000    0.81750   0.22560   0.41380   Biso      1.000     H          0.142664  
         H9        1.0000    0.12830   0.49430   0.84900   Biso      1.000     H          0.103937  
         H10       1.0000    0.99290   0.46770   0.35260   Biso      1.000     H          0.13817   
         H11       1.0000    0.87570   0.50410   0.33360   Biso      1.000     H          0.150226  
         H12       1.0000    0.87170   0.50570   0.15100   Biso      1.000     H          0.103937  
         H13       1.0000    0.02040   0.61080   0.26240   Biso      1.000     H          0.115381  
         H14       1.0000    0.01710   0.26710   0.92060   Biso      1.000     H          0.092866  
         H15       1.0000    0.90370   0.81180   0.58620   Biso      1.000     H          0.142833  
         H16       1.0000    0.94340   0.72140   0.63860   Biso      1.000     H          0.14633   
         H17       1.0000    0.96610   0.85850   0.73080   Biso      1.000     H          0.149663  
         H18       1.0000    0.12430   0.49590   0.66640   Biso      1.000     H          0.150226  
         H19       1.0000    0.77050   0.67730   0.69960   Biso      1.000     H          0.109625  
         H20       1.0000    0.51630   0.30170   0.30580   Biso      1.000     H          0.093274  
         H21       1.0000    0.89700   0.87880   0.24120   Biso      1.000     H          0.143137  
         H22       1.0000    0.85970   0.88490   0.35260   Biso      1.000     H          0.137859  
         H23       1.0000    0.95790   0.82950   0.33360   Biso      1.000     H          0.150409  
         H24       1.0000    0.77930   0.64530   0.15100   Biso      1.000     H          0.104107  
         H25       1.0000    0.74200   0.65160   0.26240   Biso      1.000     H          0.114871  
         H26       1.0000    0.40350   0.65350   0.92060   Biso      1.000     H          0.092957  
         H27       1.0000    0.84420   0.36240   0.24120   Biso      1.000     H          0.143494  
         H28       1.0000    0.28950   0.00410   0.30580   Biso      1.000     H          0.092325  
         H29       1.0000    0.73230   0.77110   0.65160   Biso      1.000     H          0.104366  
         H30       1.0000    0.41930   0.88050   0.65160   Biso      1.000     H          0.104913  
         H31       1.0000    0.42910   0.02230   0.69960   Biso      1.000     H          0.109483  
         H32       1.0000    0.97960   0.38920   0.73760   Biso      1.000     H          0.115381  
         H33       1.0000    0.98290   0.73290   0.07940   Biso      1.000     H          0.092866  
         H34       1.0000    0.09630   0.18820   0.41380   Biso      1.000     H          0.142832  
         H35       1.0000    0.05660   0.27860   0.36140   Biso      1.000     H          0.14633   
         H36       1.0000    0.26770   0.22890   0.34840   Biso      1.000     H          0.104366  
         H37       1.0000    0.22950   0.32270   0.30040   Biso      1.000     H          0.109625  
         H38       1.0000    0.48370   0.69830   0.69420   Biso      1.000     H          0.093274  
         H39       1.0000    0.03390   0.14150   0.26920   Biso      1.000     H          0.149663  
         H40       1.0000    0.14030   0.11510   0.64740   Biso      1.000     H          0.137859  
         H41       1.0000    0.04210   0.17050   0.66640   Biso      1.000     H          0.150408  
         H42       1.0000    0.22070   0.35470   0.84900   Biso      1.000     H          0.104107  
         H43       1.0000    0.25800   0.34840   0.73760   Biso      1.000     H          0.114871  
         H44       1.0000    0.59650   0.34650   0.07940   Biso      1.000     H          0.092957  
         H45       1.0000    0.18250   0.77440   0.58620   Biso      1.000     H          0.142664  
         H46       1.0000    0.19520   0.91720   0.63860   Biso      1.000     H          0.14641   
         H47       1.0000    0.10300   0.12120   0.75880   Biso      1.000     H          0.143137  
         H48       1.0000    0.26470   0.87230   0.73080   Biso      1.000     H          0.15017   
         N1        1.0000    0.56134   0.30344   0.90368   Biso      1.000     N          -0.187138           
         N2        1.0000    0.42051   0.33431   0.98062   Biso      1.000     N          -0.352133           
         N3        1.0000    0.40450   0.40260   0.58840   Biso      1.000     N          -0.248787           
         N4        1.0000    0.47857   0.52987   0.68814   Biso      1.000     N          -0.172512           
         N5        1.0000    0.06011   0.64631   0.98062   Biso      1.000     N          -0.35174  
         N6        1.0000    0.85724   0.52044   0.80968   Biso      1.000     N          -0.259945           
         N7        1.0000    0.84234   0.60024   0.90368   Biso      1.000     N          -0.187136           
         N8        1.0000    0.45244   0.28924   0.80968   Biso      1.000     N          -0.260522           
         N9        1.0000    0.68390   0.18580   0.58840   Biso      1.000     N          -0.249456           
         N10       1.0000    0.35585   0.53775   0.52170   Biso      1.000     N          -0.345212           
         N11       1.0000    0.33415   0.01605   0.47830   Biso      1.000     N          -0.34766  
         N12       1.0000    0.57949   0.66569   0.01938   Biso      1.000     N          -0.352133           
         N13       1.0000    0.31610   0.81420   0.41160   Biso      1.000     N          -0.249455           
         N14       1.0000    0.93989   0.35369   0.01938   Biso      1.000     N          -0.35174  
         N15       1.0000    0.15766   0.39976   0.09632   Biso      1.000     N          -0.18714  
         N16       1.0000    0.14276   0.47956   0.19032   Biso      1.000     N          -0.259941           
         N17       1.0000    0.64415   0.46225   0.47830   Biso      1.000     N          -0.345212           
         N18       1.0000    0.52143   0.47013   0.31186   Biso      1.000     N          -0.172525           
         N19       1.0000    0.59550   0.59740   0.41160   Biso      1.000     N          -0.248774           
         N20       1.0000    0.43866   0.69656   0.09632   Biso      1.000     N          -0.187138           
         N21       1.0000    0.54756   0.71076   0.19032   Biso      1.000     N          -0.260522           
         N22       1.0000    0.70957   0.15827   0.68814   Biso      1.000     N          -0.173393           
         N23       1.0000    0.29043   0.84173   0.31186   Biso      1.000     N          -0.173393           
         N24       1.0000    0.66585   0.98395   0.52170   Biso      1.000     N          -0.34766 