
##########################################################################
#               Crystallographic Information Format file
#               Produced by PyCifRW module
#
#  This is a CIF file.  CIF has been adopted by the International
#  Union of Crystallography as the standard for data archiving and
#  transmission.
#
#  For information on this file format, follow the CIF links at
#  http://www.iucr.org
##########################################################################

data_image0

_cell_length_a                          10.721
_cell_length_b                          13.018
_cell_length_c                          15.183
_cell_angle_alpha                       95.599
_cell_angle_beta                        108.01
_cell_angle_gamma                       104.702
_symmetry_space_group_name_H-M          'P 1'
_symmetry_int_tables_number             1
loop_
  _symmetry_equiv_pos_as_xyz
         'x, y, z' 
loop_
  _atom_site_label
  _atom_site_occupancy
  _atom_site_fract_x
  _atom_site_fract_y
  _atom_site_fract_z
  _atom_site_thermal_displace_type
  _atom_site_B_iso_or_equiv
  _atom_site_type_symbol
  _atom_site_charge
         C1        1.0000    0.26740   0.47330   0.63230   Biso      1.000     C          0.108026  
         C2        1.0000    0.22070   0.63630   0.35280   Biso      1.000     C          -0.254659           
         C3        1.0000    0.68020   0.90030   0.74610   Biso      1.000     C          0.09993400000000001           
         C4        1.0000    0.86430   0.04770   0.76840   Biso      1.000     C          0.107418  
         C5        1.0000    0.76520   0.84460   0.79600   Biso      1.000     C          -0.17946600000000001          
         C6        1.0000    0.06980   0.57120   0.62760   Biso      1.000     C          -0.143348           
         C7        1.0000    0.99490   0.83550   0.89080   Biso      1.000     C          0.121754  
         C8        1.0000    0.11080   0.88910   0.97120   Biso      1.000     C          -0.19503  
         C9        1.0000    0.18340   0.82890   0.02480   Biso      1.000     C          0.094854  
         C10       1.0000    0.95610   0.99810   0.81810   Biso      1.000     C          -0.185263           
         C11       1.0000    0.90440   0.89450   0.83360   Biso      1.000     C          0.11829200000000001           
         C12       1.0000    0.17790   0.58070   0.70880   Biso      1.000     C          0.092429  
         C13       1.0000    0.23510   0.67420   0.26380   Biso      1.000     C          0.665075  
         C14       1.0000    0.16160   0.46040   0.54750   Biso      1.000     C          -0.141715           
         C15       1.0000    0.05840   0.50790   0.54490   Biso      1.000     C          0.11143   
         C16       1.0000    0.02180   0.18390   0.36030   Biso      1.000     C          0.584256  
         C17       1.0000    0.36930   0.19690   0.55040   Biso      1.000     C          0.621115  
         C18       1.0000    0.22030   0.46100   0.94160   Biso      1.000     C          0.649632  
         C19       1.0000    0.32390   0.26090   0.85230   Biso      1.000     C          -0.27810300000000004          
         C20       1.0000    0.46340   0.32500   0.86290   Biso      1.000     C          0.685449  
         C21       1.0000    0.63900   0.11740   0.47830   Biso      1.000     C          0.688433  
         C22       1.0000    0.24700   0.10680   0.54750   Biso      1.000     C          -0.273926           
         C23       1.0000    0.02520   0.09680   0.41980   Biso      1.000     C          -0.25313  
         C24       1.0000    0.70760   0.23820   0.48960   Biso      1.000     C          -0.27271100000000004          
         C25       1.0000    0.15610   0.34450   0.89030   Biso      1.000     C          -0.270498           
         C26       1.0000    0.03870   0.66930   0.92610   Biso      1.000     C          0.105565  
         C27       1.0000    0.87180   0.72140   0.27300   Biso      1.000     C          0.462275  
         C28       1.0000    0.91890   0.80940   0.42050   Biso      1.000     C          0.47576899999999994           
         C29       1.0000    0.06920   0.73240   0.38840   Biso      1.000     C          0.469287  
         C30       1.0000    0.31980   0.09970   0.25390   Biso      1.000     C          0.09993400000000001           
         C31       1.0000    0.13570   0.95230   0.23160   Biso      1.000     C          0.107419  
         C32       1.0000    0.23480   0.15540   0.20400   Biso      1.000     C          -0.17946900000000002          
         C33       1.0000    0.93020   0.42880   0.37240   Biso      1.000     C          -0.143348           
         C34       1.0000    0.00510   0.16450   0.10920   Biso      1.000     C          0.121755  
         C35       1.0000    0.88920   0.11090   0.02880   Biso      1.000     C          -0.19503  
         C36       1.0000    0.73260   0.52670   0.36770   Biso      1.000     C          0.108028  
         C37       1.0000    0.81660   0.17110   0.97520   Biso      1.000     C          0.094854  
         C38       1.0000    0.04390   0.00190   0.18190   Biso      1.000     C          -0.185263           
         C39       1.0000    0.09560   0.10550   0.16640   Biso      1.000     C          0.11829300000000001           
         C40       1.0000    0.82210   0.41930   0.29120   Biso      1.000     C          0.09243   
         C41       1.0000    0.83840   0.53960   0.45250   Biso      1.000     C          -0.141715           
         C42       1.0000    0.96130   0.33070   0.07390   Biso      1.000     C          0.105565  
         C43       1.0000    0.94160   0.49210   0.45510   Biso      1.000     C          0.11143   
         C44       1.0000    0.04080   0.27710   0.13160   Biso      1.000     C          -0.157574           
         C45       1.0000    0.97820   0.81610   0.63970   Biso      1.000     C          0.584249  
         C46       1.0000    0.63070   0.80310   0.44960   Biso      1.000     C          0.621111  
         C47       1.0000    0.77970   0.53900   0.05840   Biso      1.000     C          0.6496350000000001  
         C48       1.0000    0.67610   0.73910   0.14770   Biso      1.000     C          -0.278099           
         C49       1.0000    0.53660   0.67500   0.13710   Biso      1.000     C          0.68545   
         C50       1.0000    0.36100   0.88260   0.52170   Biso      1.000     C          0.688433  
         C51       1.0000    0.75300   0.89320   0.45250   Biso      1.000     C          -0.273927           
         C52       1.0000    0.97480   0.90320   0.58020   Biso      1.000     C          -0.253131           
         C53       1.0000    0.29240   0.76180   0.51040   Biso      1.000     C          -0.27271100000000004          
         C54       1.0000    0.84390   0.65550   0.10970   Biso      1.000     C          -0.270495           
         C55       1.0000    0.93080   0.26760   0.61160   Biso      1.000     C          0.469287  
         C56       1.0000    0.08110   0.19060   0.57950   Biso      1.000     C          0.47576899999999994           
         C57       1.0000    0.95920   0.72290   0.86840   Biso      1.000     C          -0.157573           
         C58       1.0000    0.76490   0.32580   0.73620   Biso      1.000     C          0.665075  
         C59       1.0000    0.77930   0.36370   0.64720   Biso      1.000     C          -0.254659           
         C60       1.0000    0.12820   0.27860   0.72700   Biso      1.000     C          0.46227399999999996           
         H1        1.0000    0.89930   0.11770   0.76000   Biso      1.000     H          0.096549  
         H2        1.0000    0.72810   0.77480   0.80370   Biso      1.000     H          0.11953399999999999           
         H3        1.0000    0.00490   0.60680   0.62820   Biso      1.000     H          0.135551  
         H4        1.0000    0.13850   0.96410   0.98830   Biso      1.000     H          0.127418  
         H5        1.0000    0.33500   0.44000   0.63360   Biso      1.000     H          0.11080599999999999           
         H6        1.0000    0.26020   0.86500   0.07770   Biso      1.000     H          0.099452  
         H7        1.0000    0.05020   0.03300   0.84060   Biso      1.000     H          0.135713  
         H8        1.0000    0.18410   0.62280   0.76400   Biso      1.000     H          0.10091599999999999           
         H9        1.0000    0.15970   0.42020   0.49280   Biso      1.000     H          0.146508  
         H10       1.0000    0.01510   0.59440   0.91000   Biso      1.000     H          0.100186  
         H11       1.0000    0.88340   0.68430   0.81570   Biso      1.000     H          0.144822  
         H12       1.0000    0.32580   0.24170   0.91280   Biso      1.000     H          0.12829200000000002           
         H13       1.0000    0.23970   0.04300   0.50520   Biso      1.000     H          0.14397000000000001           
         H14       1.0000    0.26300   0.08950   0.61000   Biso      1.000     H          0.121297  
         H15       1.0000    0.93280   0.06490   0.41930   Biso      1.000     H          0.123901  
         H16       1.0000    0.05110   0.04030   0.38980   Biso      1.000     H          0.12953900000000002           
         H17       1.0000    0.75300   0.24860   0.44350   Biso      1.000     H          0.133615  
         H18       1.0000    0.63680   0.27420   0.47540   Biso      1.000     H          0.145493  
         H19       1.0000    0.16590   0.29830   0.93680   Biso      1.000     H          0.12945399999999999           
         H20       1.0000    0.05850   0.33260   0.85900   Biso      1.000     H          0.15504600000000002           
         H21       1.0000    0.69470   0.37780   0.61270   Biso      1.000     H          0.158082  
         H22       1.0000    0.85230   0.43180   0.66580   Biso      1.000     H          0.125809  
         H23       1.0000    0.58580   0.86650   0.72140   Biso      1.000     H          0.10315999999999999           
         H24       1.0000    0.14770   0.56820   0.33420   Biso      1.000     H          0.125809  
         H25       1.0000    0.30040   0.19400   0.80820   Biso      1.000     H          0.15596   
         H26       1.0000    0.94150   0.66740   0.14100   Biso      1.000     H          0.15504500000000002           
         H27       1.0000    0.30530   0.62220   0.38730   Biso      1.000     H          0.158083  
         H28       1.0000    0.10070   0.88230   0.24000   Biso      1.000     H          0.096549  
         H29       1.0000    0.27190   0.22520   0.19630   Biso      1.000     H          0.11953   
         H30       1.0000    0.99510   0.39320   0.37180   Biso      1.000     H          0.135551  
         H31       1.0000    0.86150   0.03590   0.01170   Biso      1.000     H          0.127418  
         H32       1.0000    0.66500   0.56000   0.36640   Biso      1.000     H          0.11080799999999999           
         H33       1.0000    0.73980   0.13500   0.92230   Biso      1.000     H          0.099452  
         H34       1.0000    0.94980   0.96700   0.15940   Biso      1.000     H          0.135713  
         H35       1.0000    0.81590   0.37720   0.23600   Biso      1.000     H          0.10091699999999999           
         H36       1.0000    0.84030   0.57980   0.50720   Biso      1.000     H          0.146508  
         H37       1.0000    0.98490   0.40560   0.09000   Biso      1.000     H          0.100186  
         H38       1.0000    0.41420   0.13350   0.27860   Biso      1.000     H          0.10315999999999999           
         H39       1.0000    0.67420   0.75830   0.08720   Biso      1.000     H          0.12829400000000002           
         H40       1.0000    0.69960   0.80600   0.19180   Biso      1.000     H          0.15595799999999999           
         H41       1.0000    0.76030   0.95700   0.49480   Biso      1.000     H          0.143969  
         H42       1.0000    0.73700   0.91050   0.39000   Biso      1.000     H          0.121297  
         H43       1.0000    0.06720   0.93510   0.58070   Biso      1.000     H          0.123901  
         H44       1.0000    0.94890   0.95970   0.61020   Biso      1.000     H          0.12953800000000001           
         H45       1.0000    0.24700   0.75140   0.55650   Biso      1.000     H          0.133614  
         H46       1.0000    0.36320   0.72580   0.52460   Biso      1.000     H          0.145493  
         H47       1.0000    0.11660   0.31570   0.18430   Biso      1.000     H          0.144822  
         H48       1.0000    0.83410   0.70170   0.06320   Biso      1.000     H          0.12945399999999999           
         N1        1.0000    0.01230   0.30770   0.70140   Biso      1.000     N          -0.548441           
         N2        1.0000    0.72950   0.00160   0.73220   Biso      1.000     N          -0.21134  
         N3        1.0000    0.98770   0.69230   0.29860   Biso      1.000     N          -0.548441           
         N4        1.0000    0.19140   0.70980   0.41650   Biso      1.000     N          -0.068384           
         N5        1.0000    0.78750   0.68980   0.17980   Biso      1.000     N          -0.09185900000000001          
         N6        1.0000    0.04160   0.79200   0.45420   Biso      1.000     N          -0.510896           
         N7        1.0000    0.88330   0.86900   0.48310   Biso      1.000     N          -0.047568           
         N8        1.0000    0.27490   0.53190   0.71160   Biso      1.000     N          -0.22657800000000003          
         N9        1.0000    0.85290   0.27950   0.99660   Biso      1.000     N          -0.232893           
         N10       1.0000    0.82970   0.77740   0.33120   Biso      1.000     N          -0.5412020000000001           
         N11       1.0000    0.14710   0.72050   0.00340   Biso      1.000     N          -0.232893           
         N12       1.0000    0.27050   0.99840   0.26780   Biso      1.000     N          -0.21134  
         N13       1.0000    0.11670   0.13100   0.51690   Biso      1.000     N          -0.047568           
         N14       1.0000    0.95840   0.20800   0.54580   Biso      1.000     N          -0.510895           
         N15       1.0000    0.17030   0.22260   0.66880   Biso      1.000     N          -0.5412020000000001           
         N16       1.0000    0.80860   0.29020   0.58350   Biso      1.000     N          -0.068384           
         N17       1.0000    0.72510   0.46810   0.28840   Biso      1.000     N          -0.22655999999999998          
         N18       1.0000    0.21250   0.31020   0.82020   Biso      1.000     N          -0.091864           
         O1        1.0000    0.43110   0.93050   0.60460   Biso      1.000     O          -0.5698770000000001           
         O2        1.0000    0.26350   0.76860   0.25280   Biso      1.000     O          -0.586693           
         O3        1.0000    0.21620   0.59450   0.19720   Biso      1.000     O          -0.573177           
         O4        1.0000    0.34060   0.92770   0.45080   Biso      1.000     O          -0.593275           
         O5        1.0000    0.13420   0.26460   0.38160   Biso      1.000     O          -0.498586           
         O6        1.0000    0.91880   0.17760   0.29380   Biso      1.000     O          -0.5674   
         O7        1.0000    0.64920   0.72730   0.49320   Biso      1.000     O          -0.49271400000000004          
         O8        1.0000    0.69410   0.46910   0.07920   Biso      1.000     O          -0.552687           
         O9        1.0000    0.82480   0.51580   0.99340   Biso      1.000     O          -0.532723           
         O10       1.0000    0.50570   0.57920   0.14880   Biso      1.000     O          -0.545172           
         O11       1.0000    0.48790   0.19180   0.59350   Biso      1.000     O          -0.5807329999999999           
         O12       1.0000    0.44550   0.72180   0.11450   Biso      1.000     O          -0.545313           
         O13       1.0000    0.51210   0.80820   0.40650   Biso      1.000     O          -0.5807329999999999           
         O14       1.0000    0.35080   0.27270   0.50680   Biso      1.000     O          -0.49271800000000004          
         O15       1.0000    0.08120   0.82240   0.70620   Biso      1.000     O          -0.567398           
         O16       1.0000    0.17520   0.48420   0.00660   Biso      1.000     O          -0.532724           
         O17       1.0000    0.49430   0.42080   0.85120   Biso      1.000     O          -0.545189           
         O18       1.0000    0.55450   0.27820   0.88550   Biso      1.000     O          -0.5453140000000001           
         O19       1.0000    0.56890   0.06950   0.39540   Biso      1.000     O          -0.569878           
         O20       1.0000    0.73650   0.23140   0.74720   Biso      1.000     O          -0.586692           
         O21       1.0000    0.78380   0.40550   0.80280   Biso      1.000     O          -0.573177           
         O22       1.0000    0.65940   0.07230   0.54920   Biso      1.000     O          -0.593274           
         O23       1.0000    0.86580   0.73540   0.61840   Biso      1.000     O          -0.49858100000000005          
         O24       1.0000    0.30590   0.53090   0.92080   Biso      1.000     O          -0.5527029999999999           
         Zn1       1.0000    0.58169   0.45887   0.16268   Biso      1.000     Zn          0.615742  
         Zn2       1.0000    0.25183   0.63203   0.08392   Biso      1.000     Zn          0.8510979999999999  
         Zn3       1.0000    0.41772   0.92042   0.34379   Biso      1.000     Zn          0.924003  
         Zn4       1.0000    0.41831   0.54113   0.83732   Biso      1.000     Zn          0.6158140000000001  
         Zn5       1.0000    0.74817   0.36797   0.91608   Biso      1.000     Zn          0.8510969999999999  
         Zn6       1.0000    0.58228   0.07958   0.65621   Biso      1.000     Zn          0.924002 