
##########################################################################
#               Crystallographic Information Format file
#               Produced by PyCifRW module
#
#  This is a CIF file.  CIF has been adopted by the International
#  Union of Crystallography as the standard for data archiving and
#  transmission.
#
#  For information on this file format, follow the CIF links at
#  http://www.iucr.org
##########################################################################

data_image0

_cell_length_a                          10.0389
_cell_length_b                          17.7423
_cell_length_c                          19.7457
_cell_angle_alpha                       90
_cell_angle_beta                        90
_cell_angle_gamma                       90
_symmetry_space_group_name_H-M          'P 1'
_symmetry_int_tables_number             1
loop_
  _symmetry_equiv_pos_as_xyz
         'x, y, z' 
loop_
  _atom_site_label
  _atom_site_occupancy
  _atom_site_fract_x
  _atom_site_fract_y
  _atom_site_fract_z
  _atom_site_thermal_displace_type
  _atom_site_B_iso_or_equiv
  _atom_site_type_symbol
  _atom_site_charge
         C1        1.0000    0.20480   0.19288   0.93804   Biso      1.000     C          -0.038803           
         C2        1.0000    0.22800   0.29550   0.63659   Biso      1.000     C          0.685632  
         C3        1.0000    0.20480   0.30712   0.56196   Biso      1.000     C          -0.038803           
         C4        1.0000    0.29660   0.34591   0.52241   Biso      1.000     C          -0.111254           
         C5        1.0000    0.26900   0.35855   0.45453   Biso      1.000     C          -0.094632           
         C6        1.0000    0.08920   0.28033   0.53235   Biso      1.000     C          -0.110797           
         C7        1.0000    0.06440   0.29257   0.46442   Biso      1.000     C          -0.091358           
         C8        1.0000    0.15370   0.33176   0.42593   Biso      1.000     C          -0.084875           
         C9        1.0000    0.50330   0.06318   0.64528   Biso      1.000     C          -0.080885           
         C10       1.0000    0.35820   0.06198   0.52938   Biso      1.000     C          -0.193418           
         C11       1.0000    0.47580   0.02136   0.52990   Biso      1.000     C          0.049861  
         C12       1.0000    0.31700   0.10273   0.58452   Biso      1.000     C          -0.067092           
         C13       1.0000    0.54710   0.02255   0.59010   Biso      1.000     C          -0.189475           
         C14       1.0000    0.72800   0.20450   0.63659   Biso      1.000     C          0.685632  
         C15       1.0000    0.70480   0.19288   0.56196   Biso      1.000     C          -0.038803           
         C16       1.0000    0.79660   0.15409   0.52241   Biso      1.000     C          -0.111254           
         C17       1.0000    0.76900   0.14145   0.45453   Biso      1.000     C          -0.094632           
         C18       1.0000    0.58920   0.21967   0.53235   Biso      1.000     C          -0.110797           
         C19       1.0000    0.54710   0.47745   0.90990   Biso      1.000     C          -0.18948  
         C20       1.0000    0.31700   0.39727   0.91548   Biso      1.000     C          -0.067096           
         C21       1.0000    0.47580   0.47864   0.97010   Biso      1.000     C          0.049859  
         C22       1.0000    0.35820   0.43802   0.97062   Biso      1.000     C          -0.193412           
         C23       1.0000    0.27200   0.70450   0.13659   Biso      1.000     C          0.685632  
         C24       1.0000    0.29520   0.69288   0.06196   Biso      1.000     C          -0.038803           
         C25       1.0000    0.20340   0.65409   0.02241   Biso      1.000     C          -0.111254           
         C26       1.0000    0.23100   0.64145   0.95453   Biso      1.000     C          -0.094632           
         C27       1.0000    0.41080   0.71967   0.03235   Biso      1.000     C          -0.110797           
         C28       1.0000    0.43560   0.70743   0.96442   Biso      1.000     C          -0.091358           
         C29       1.0000    0.99670   0.93682   0.14528   Biso      1.000     C          -0.080885           
         C30       1.0000    0.14180   0.93802   0.02938   Biso      1.000     C          -0.193419           
         C31       1.0000    0.56440   0.20743   0.46442   Biso      1.000     C          -0.091358           
         C32       1.0000    0.02420   0.97864   0.02990   Biso      1.000     C          0.049861  
         C33       1.0000    0.95290   0.97745   0.09010   Biso      1.000     C          -0.189475           
         C34       1.0000    0.22800   0.20450   0.86341   Biso      1.000     C          0.685632  
         C35       1.0000    0.29660   0.15409   0.97759   Biso      1.000     C          -0.111254           
         C36       1.0000    0.26900   0.14145   0.04547   Biso      1.000     C          -0.094632           
         C37       1.0000    0.08920   0.21967   0.96765   Biso      1.000     C          -0.110797           
         C38       1.0000    0.06440   0.20743   0.03558   Biso      1.000     C          -0.091358           
         C39       1.0000    0.15370   0.16824   0.07407   Biso      1.000     C          -0.084875           
         C40       1.0000    0.50330   0.43682   0.85472   Biso      1.000     C          -0.08088  
         C41       1.0000    0.18300   0.89727   0.08452   Biso      1.000     C          -0.067092           
         C42       1.0000    0.95290   0.52255   0.40990   Biso      1.000     C          -0.18948  
         C43       1.0000    0.65370   0.16824   0.42593   Biso      1.000     C          -0.084875           
         C44       1.0000    0.85820   0.43802   0.52938   Biso      1.000     C          -0.193418           
         C45       1.0000    0.49670   0.56318   0.14528   Biso      1.000     C          -0.080885           
         C46       1.0000    0.64180   0.56198   0.02938   Biso      1.000     C          -0.193418           
         C47       1.0000    0.52420   0.52136   0.02990   Biso      1.000     C          0.049861  
         C48       1.0000    0.68300   0.60273   0.08452   Biso      1.000     C          -0.067092           
         C49       1.0000    0.45290   0.52255   0.09010   Biso      1.000     C          -0.189475           
         C50       1.0000    0.77200   0.70450   0.36341   Biso      1.000     C          0.685632  
         C51       1.0000    0.79520   0.69288   0.43804   Biso      1.000     C          -0.038803           
         C52       1.0000    0.70340   0.65409   0.47759   Biso      1.000     C          -0.111254           
         C53       1.0000    0.73100   0.64145   0.54547   Biso      1.000     C          -0.094632           
         C54       1.0000    0.91080   0.71967   0.46765   Biso      1.000     C          -0.110797           
         C55       1.0000    0.93560   0.70743   0.53558   Biso      1.000     C          -0.091358           
         C56       1.0000    0.84630   0.66824   0.57407   Biso      1.000     C          -0.084875           
         C57       1.0000    0.49670   0.93682   0.35472   Biso      1.000     C          -0.080885           
         C58       1.0000    0.64180   0.93802   0.47062   Biso      1.000     C          -0.193418           
         C59       1.0000    0.52420   0.97864   0.47010   Biso      1.000     C          0.049861  
         C60       1.0000    0.68300   0.89727   0.41548   Biso      1.000     C          -0.067092           
         C61       1.0000    0.45290   0.97745   0.40990   Biso      1.000     C          -0.189475           
         C62       1.0000    0.84630   0.83176   0.92593   Biso      1.000     C          -0.084887           
         C63       1.0000    0.93560   0.79257   0.96442   Biso      1.000     C          -0.091349           
         C64       1.0000    0.91080   0.78033   0.03235   Biso      1.000     C          -0.110798           
         C65       1.0000    0.73100   0.85855   0.95453   Biso      1.000     C          -0.094628           
         C66       1.0000    0.97580   0.47864   0.52990   Biso      1.000     C          0.049861  
         C67       1.0000    0.81700   0.39727   0.58452   Biso      1.000     C          -0.067092           
         C68       1.0000    0.04710   0.47745   0.59010   Biso      1.000     C          -0.18948  
         C69       1.0000    0.72800   0.29550   0.86341   Biso      1.000     C          0.685632  
         C70       1.0000    0.70480   0.30712   0.93804   Biso      1.000     C          -0.038803           
         C71       1.0000    0.79660   0.34591   0.97759   Biso      1.000     C          -0.111254           
         C72       1.0000    0.76900   0.35855   0.04547   Biso      1.000     C          -0.094632           
         C73       1.0000    0.58920   0.28033   0.96765   Biso      1.000     C          -0.110797           
         C74       1.0000    0.00330   0.43682   0.64528   Biso      1.000     C          -0.08088  
         C75       1.0000    0.56440   0.29257   0.03558   Biso      1.000     C          -0.091358           
         C76       1.0000    0.00330   0.06318   0.85472   Biso      1.000     C          -0.080885           
         C77       1.0000    0.85820   0.06198   0.97062   Biso      1.000     C          -0.193418           
         C78       1.0000    0.97580   0.02136   0.97010   Biso      1.000     C          0.049861  
         C79       1.0000    0.81700   0.10273   0.91548   Biso      1.000     C          -0.067092           
         C80       1.0000    0.04710   0.02255   0.90990   Biso      1.000     C          -0.189475           
         C81       1.0000    0.77200   0.79550   0.13659   Biso      1.000     C          0.685632  
         C82       1.0000    0.79520   0.80712   0.06196   Biso      1.000     C          -0.038803           
         C83       1.0000    0.70340   0.84591   0.02241   Biso      1.000     C          -0.111255           
         C84       1.0000    0.65370   0.33176   0.07407   Biso      1.000     C          -0.084875           
         C85       1.0000    0.18300   0.60273   0.41548   Biso      1.000     C          -0.067096           
         C86       1.0000    0.34630   0.66824   0.92593   Biso      1.000     C          -0.084875           
         C87       1.0000    0.14180   0.56198   0.47062   Biso      1.000     C          -0.193415           
         C88       1.0000    0.27200   0.79550   0.36341   Biso      1.000     C          0.685632  
         C89       1.0000    0.29520   0.80712   0.43804   Biso      1.000     C          -0.038803           
         C90       1.0000    0.20340   0.84591   0.47759   Biso      1.000     C          -0.111254           
         C91       1.0000    0.23100   0.85855   0.54547   Biso      1.000     C          -0.094632           
         C92       1.0000    0.02420   0.52136   0.47010   Biso      1.000     C          0.049861  
         C93       1.0000    0.43560   0.79257   0.53558   Biso      1.000     C          -0.091358           
         C94       1.0000    0.34630   0.83176   0.57407   Biso      1.000     C          -0.084875           
         C95       1.0000    0.99670   0.56318   0.35472   Biso      1.000     C          -0.08088  
         C96       1.0000    0.41080   0.78033   0.46765   Biso      1.000     C          -0.110797           
         H1        1.0000    0.02780   0.24610   0.94160   Biso      1.000     H          0.109191  
         H2        1.0000    0.98680   0.22590   0.05510   Biso      1.000     H          0.101636  
         H3        1.0000    0.13630   0.15970   0.11970   Biso      1.000     H          0.10311   
         H4        1.0000    0.55160   0.43770   0.81450   Biso      1.000     H          0.11908   
         H5        1.0000    0.30570   0.43840   0.00940   Biso      1.000     H          0.12046   
         H6        1.0000    0.23740   0.37050   0.91730   Biso      1.000     H          0.120806  
         H7        1.0000    0.62600   0.50460   0.90670   Biso      1.000     H          0.122138  
         H8        1.0000    0.32920   0.38540   0.42810   Biso      1.000     H          0.103096  
         H9        1.0000    0.02780   0.25390   0.55840   Biso      1.000     H          0.109191  
         H10       1.0000    0.98680   0.27410   0.44490   Biso      1.000     H          0.101636  
         H11       1.0000    0.32920   0.11460   0.07190   Biso      1.000     H          0.103096  
         H12       1.0000    0.55160   0.06230   0.68550   Biso      1.000     H          0.11908   
         H13       1.0000    0.30570   0.06160   0.49060   Biso      1.000     H          0.12046   
         H14       1.0000    0.23740   0.12950   0.58270   Biso      1.000     H          0.120806  
         H15       1.0000    0.37580   0.36320   0.54130   Biso      1.000     H          0.115707  
         H16       1.0000    0.37580   0.13680   0.95870   Biso      1.000     H          0.115707  
         H17       1.0000    0.36370   0.65970   0.88030   Biso      1.000     H          0.10311   
         H18       1.0000    0.26260   0.87050   0.08270   Biso      1.000     H          0.120806  
         H19       1.0000    0.12420   0.86320   0.45870   Biso      1.000     H          0.115707  
         H20       1.0000    0.17080   0.88540   0.57190   Biso      1.000     H          0.103096  
         H21       1.0000    0.47220   0.75390   0.44160   Biso      1.000     H          0.109191  
         H22       1.0000    0.51320   0.77410   0.55510   Biso      1.000     H          0.101636  
         H23       1.0000    0.36370   0.84030   0.61970   Biso      1.000     H          0.10311   
         H24       1.0000    0.94840   0.56230   0.31450   Biso      1.000     H          0.11908   
         H25       1.0000    0.19430   0.56160   0.50940   Biso      1.000     H          0.12046   
         H26       1.0000    0.87400   0.00460   0.09330   Biso      1.000     H          0.122138  
         H27       1.0000    0.26260   0.62950   0.41730   Biso      1.000     H          0.120806  
         H28       1.0000    0.12420   0.63680   0.04130   Biso      1.000     H          0.115707  
         H29       1.0000    0.17080   0.61460   0.92810   Biso      1.000     H          0.103096  
         H30       1.0000    0.47220   0.74610   0.05840   Biso      1.000     H          0.109191  
         H31       1.0000    0.51320   0.72590   0.94490   Biso      1.000     H          0.101636  
         H32       1.0000    0.62600   0.99540   0.59330   Biso      1.000     H          0.122138  
         H33       1.0000    0.94840   0.93770   0.18550   Biso      1.000     H          0.11908   
         H34       1.0000    0.19430   0.93840   0.99060   Biso      1.000     H          0.12046   
         H35       1.0000    0.87400   0.49540   0.40670   Biso      1.000     H          0.122138  
         H36       1.0000    0.87580   0.13680   0.54130   Biso      1.000     H          0.115707  
         H37       1.0000    0.13630   0.34030   0.38030   Biso      1.000     H          0.10311   
         H38       1.0000    0.52780   0.24610   0.55840   Biso      1.000     H          0.109191  
         H39       1.0000    0.86370   0.84030   0.88030   Biso      1.000     H          0.103111  
         H40       1.0000    0.44840   0.56230   0.18550   Biso      1.000     H          0.11908   
         H41       1.0000    0.69430   0.56160   0.99060   Biso      1.000     H          0.120461  
         H42       1.0000    0.76260   0.62950   0.08270   Biso      1.000     H          0.120806  
         H43       1.0000    0.37400   0.49540   0.09330   Biso      1.000     H          0.122138  
         H44       1.0000    0.62420   0.63680   0.45870   Biso      1.000     H          0.115707  
         H45       1.0000    0.01320   0.77410   0.94490   Biso      1.000     H          0.101636  
         H46       1.0000    0.67080   0.61460   0.57190   Biso      1.000     H          0.103096  
         H47       1.0000    0.01320   0.72590   0.55510   Biso      1.000     H          0.101636  
         H48       1.0000    0.86370   0.65970   0.61970   Biso      1.000     H          0.10311   
         H49       1.0000    0.44840   0.93770   0.31450   Biso      1.000     H          0.11908   
         H50       1.0000    0.69430   0.93840   0.50940   Biso      1.000     H          0.120461  
         H51       1.0000    0.76260   0.87050   0.41730   Biso      1.000     H          0.120806  
         H52       1.0000    0.37400   0.00460   0.40670   Biso      1.000     H          0.122138  
         H53       1.0000    0.82920   0.11460   0.42810   Biso      1.000     H          0.103096  
         H54       1.0000    0.97220   0.75390   0.05840   Biso      1.000     H          0.109191  
         H55       1.0000    0.97220   0.74610   0.44160   Biso      1.000     H          0.109191  
         H56       1.0000    0.62420   0.86320   0.04130   Biso      1.000     H          0.115707  
         H57       1.0000    0.67080   0.88540   0.92810   Biso      1.000     H          0.103095  
         H58       1.0000    0.48680   0.22590   0.44490   Biso      1.000     H          0.101636  
         H59       1.0000    0.63630   0.15970   0.38030   Biso      1.000     H          0.10311   
         H60       1.0000    0.80570   0.43840   0.49060   Biso      1.000     H          0.120461  
         H61       1.0000    0.73740   0.37050   0.58270   Biso      1.000     H          0.120806  
         H62       1.0000    0.12600   0.50460   0.59330   Biso      1.000     H          0.122139  
         H63       1.0000    0.87580   0.36320   0.95870   Biso      1.000     H          0.115707  
         H64       1.0000    0.05160   0.43770   0.68550   Biso      1.000     H          0.11908   
         H65       1.0000    0.52780   0.25390   0.94160   Biso      1.000     H          0.109191  
         H66       1.0000    0.48680   0.27410   0.05510   Biso      1.000     H          0.101636  
         H67       1.0000    0.63630   0.34030   0.11970   Biso      1.000     H          0.10311   
         H68       1.0000    0.05160   0.06230   0.81450   Biso      1.000     H          0.11908   
         H69       1.0000    0.80570   0.06160   0.00940   Biso      1.000     H          0.120461  
         H70       1.0000    0.73740   0.12950   0.91730   Biso      1.000     H          0.120806  
         H71       1.0000    0.12600   0.99540   0.90670   Biso      1.000     H          0.122138  
         H72       1.0000    0.82920   0.38540   0.07190   Biso      1.000     H          0.103096  
         N1        1.0000    0.60885   0.60402   0.14111   Biso      1.000     N          0.34923   
         N2        1.0000    0.60885   0.89598   0.35889   Biso      1.000     N          0.34923   
         N3        1.0000    0.89115   0.10402   0.85889   Biso      1.000     N          0.34923   
         N4        1.0000    0.89115   0.39598   0.64111   Biso      1.000     N          0.349229  
         N5        1.0000    0.10885   0.60402   0.35889   Biso      1.000     N          0.34923   
         N6        1.0000    0.10885   0.89598   0.14111   Biso      1.000     N          0.34923   
         N7        1.0000    0.39115   0.39598   0.85889   Biso      1.000     N          0.34923   
         N8        1.0000    0.39115   0.10402   0.64111   Biso      1.000     N          0.34923   
         O1        1.0000    0.84359   0.19829   0.65990   Biso      1.000     O          -0.677448           
         O2        1.0000    0.62685   0.21973   0.67141   Biso      1.000     O          -0.740305           
         O3        1.0000    0.35085   0.14460   0.69477   Biso      1.000     O          -0.68113  
         O4        1.0000    0.85085   0.35540   0.69477   Biso      1.000     O          -0.681131           
         O5        1.0000    0.62685   0.28027   0.82859   Biso      1.000     O          -0.740305           
         O6        1.0000    0.65641   0.80171   0.15990   Biso      1.000     O          -0.677448           
         O7        1.0000    0.85085   0.14460   0.80523   Biso      1.000     O          -0.68113  
         O8        1.0000    0.87315   0.71973   0.32859   Biso      1.000     O          -0.740305           
         O9        1.0000    0.64915   0.64460   0.19477   Biso      1.000     O          -0.681131           
         O10       1.0000    0.34359   0.30171   0.65990   Biso      1.000     O          -0.677448           
         O11       1.0000    0.87315   0.78027   0.17141   Biso      1.000     O          -0.740305           
         O12       1.0000    0.84359   0.30171   0.84010   Biso      1.000     O          -0.677448           
         O13       1.0000    0.12685   0.28027   0.67141   Biso      1.000     O          -0.740305           
         O14       1.0000    0.64915   0.85540   0.30523   Biso      1.000     O          -0.681131           
         O15       1.0000    0.34359   0.19829   0.84010   Biso      1.000     O          -0.677448           
         O16       1.0000    0.12685   0.21973   0.82859   Biso      1.000     O          -0.740305           
         O17       1.0000    0.14915   0.85540   0.19477   Biso      1.000     O          -0.68113  
         O18       1.0000    0.15641   0.69829   0.15990   Biso      1.000     O          -0.677448           
         O19       1.0000    0.37315   0.71973   0.17141   Biso      1.000     O          -0.740305           
         O20       1.0000    0.14915   0.64460   0.30523   Biso      1.000     O          -0.68113  
         O21       1.0000    0.15641   0.80171   0.34010   Biso      1.000     O          -0.677448           
         O22       1.0000    0.37315   0.78027   0.32859   Biso      1.000     O          -0.740305           
         O23       1.0000    0.65641   0.69829   0.34010   Biso      1.000     O          -0.677448           
         O24       1.0000    0.35085   0.35540   0.80523   Biso      1.000     O          -0.68113  
         Tb1       1.0000    0.53138   0.75000   0.25000   Biso      1.000     Tb          2.123054  
         Tb2       1.0000    0.96862   0.25000   0.75000   Biso      1.000     Tb          2.123054  
         Tb3       1.0000    0.46862   0.25000   0.75000   Biso      1.000     Tb          2.123054  
         Tb4       1.0000    0.03138   0.75000   0.25000   Biso      1.000     Tb          2.123054 