
##########################################################################
#               Crystallographic Information Format file
#               Produced by PyCifRW module
#
#  This is a CIF file.  CIF has been adopted by the International
#  Union of Crystallography as the standard for data archiving and
#  transmission.
#
#  For information on this file format, follow the CIF links at
#  http://www.iucr.org
##########################################################################

data_image0

_cell_length_a                          10.04
_cell_length_b                          17.788
_cell_length_c                          19.786
_cell_angle_alpha                       90
_cell_angle_beta                        90
_cell_angle_gamma                       90
_symmetry_space_group_name_H-M          'P 1'
_symmetry_int_tables_number             1
loop_
  _symmetry_equiv_pos_as_xyz
         'x, y, z' 
loop_
  _atom_site_label
  _atom_site_occupancy
  _atom_site_fract_x
  _atom_site_fract_y
  _atom_site_fract_z
  _atom_site_thermal_displace_type
  _atom_site_B_iso_or_equiv
  _atom_site_type_symbol
  _atom_site_charge
         C1        1.0000    0.02350   0.97860   0.53080   Biso      1.000     C          0.049125  
         C2        1.0000    0.23000   0.85830   0.04540   Biso      1.000     C          -0.093211           
         C3        1.0000    0.18230   0.89820   0.58350   Biso      1.000     C          -0.066707           
         C4        1.0000    0.14210   0.93780   0.53000   Biso      1.000     C          -0.181071           
         C5        1.0000    0.20280   0.84580   0.97770   Biso      1.000     C          -0.112258           
         C6        1.0000    0.43490   0.79300   0.03540   Biso      1.000     C          -0.093431           
         C7        1.0000    0.41020   0.78090   0.96690   Biso      1.000     C          -0.114179           
         C8        1.0000    0.34470   0.83140   0.07410   Biso      1.000     C          -0.088243           
         C9        1.0000    0.95460   0.97840   0.59010   Biso      1.000     C          -0.201175           
         C10       1.0000    0.99740   0.93740   0.64500   Biso      1.000     C          -0.074978           
         C11       1.0000    0.29390   0.80700   0.93820   Biso      1.000     C          -0.039378           
         C12       1.0000    0.27010   0.70440   0.63690   Biso      1.000     C          0.686204  
         C13       1.0000    0.29390   0.69300   0.56180   Biso      1.000     C          -0.039385           
         C14       1.0000    0.23000   0.64170   0.45460   Biso      1.000     C          -0.093211           
         C15       1.0000    0.18230   0.60180   0.91650   Biso      1.000     C          -0.066706           
         C16       1.0000    0.14210   0.56220   0.97000   Biso      1.000     C          -0.181072           
         C17       1.0000    0.20280   0.65420   0.52230   Biso      1.000     C          -0.112256           
         C18       1.0000    0.43490   0.70700   0.46460   Biso      1.000     C          -0.093432           
         C19       1.0000    0.41020   0.71910   0.53310   Biso      1.000     C          -0.114174           
         C20       1.0000    0.34470   0.66860   0.42590   Biso      1.000     C          -0.088242           
         C21       1.0000    0.95460   0.52160   0.90990   Biso      1.000     C          -0.201185           
         C22       1.0000    0.02350   0.52140   0.96920   Biso      1.000     C          0.049135  
         C23       1.0000    0.99740   0.56260   0.85500   Biso      1.000     C          -0.074976           
         C24       1.0000    0.27010   0.79560   0.86310   Biso      1.000     C          0.686204  
         C25       1.0000    0.54540   0.47840   0.40990   Biso      1.000     C          -0.201186           
         C26       1.0000    0.35790   0.43780   0.47000   Biso      1.000     C          -0.18111  
         C27       1.0000    0.31770   0.39820   0.41650   Biso      1.000     C          -0.066669           
         C28       1.0000    0.27000   0.35830   0.95460   Biso      1.000     C          -0.093211           
         C29       1.0000    0.20610   0.30700   0.06180   Biso      1.000     C          -0.039385           
         C30       1.0000    0.47650   0.47860   0.46920   Biso      1.000     C          0.049138  
         C31       1.0000    0.22990   0.29560   0.13690   Biso      1.000     C          0.686204  
         C32       1.0000    0.50260   0.06260   0.14500   Biso      1.000     C          -0.074977           
         C33       1.0000    0.54540   0.02160   0.09010   Biso      1.000     C          -0.201184           
         C34       1.0000    0.15530   0.16860   0.57410   Biso      1.000     C          -0.088249           
         C35       1.0000    0.50260   0.43740   0.35500   Biso      1.000     C          -0.074976           
         C36       1.0000    0.08980   0.21910   0.46690   Biso      1.000     C          -0.11418  
         C37       1.0000    0.29720   0.15420   0.47770   Biso      1.000     C          -0.112259           
         C38       1.0000    0.35790   0.06220   0.03000   Biso      1.000     C          -0.18111  
         C39       1.0000    0.31770   0.10180   0.08350   Biso      1.000     C          -0.066669           
         C40       1.0000    0.27000   0.14170   0.54540   Biso      1.000     C          -0.093207           
         C41       1.0000    0.20610   0.19300   0.43820   Biso      1.000     C          -0.039378           
         C42       1.0000    0.47650   0.02140   0.03080   Biso      1.000     C          0.049138  
         C43       1.0000    0.22990   0.20440   0.36310   Biso      1.000     C          0.686204  
         C44       1.0000    0.08980   0.28090   0.03310   Biso      1.000     C          -0.114175           
         C45       1.0000    0.15530   0.33140   0.92590   Biso      1.000     C          -0.088246           
         C46       1.0000    0.06510   0.20700   0.53540   Biso      1.000     C          -0.093427           
         C47       1.0000    0.77010   0.79560   0.63690   Biso      1.000     C          0.686204  
         C48       1.0000    0.52350   0.97860   0.96920   Biso      1.000     C          0.049125  
         C49       1.0000    0.79390   0.80700   0.56180   Biso      1.000     C          -0.039385           
         C50       1.0000    0.81770   0.10180   0.41650   Biso      1.000     C          -0.066706           
         C51       1.0000    0.85790   0.06220   0.47000   Biso      1.000     C          -0.181072           
         C52       1.0000    0.79720   0.15420   0.02230   Biso      1.000     C          -0.112259           
         C53       1.0000    0.56510   0.20700   0.96460   Biso      1.000     C          -0.09343  
         C54       1.0000    0.58980   0.21910   0.03310   Biso      1.000     C          -0.114179           
         C55       1.0000    0.65530   0.16860   0.92590   Biso      1.000     C          -0.088246           
         C56       1.0000    0.04540   0.02160   0.40990   Biso      1.000     C          -0.201185           
         C57       1.0000    0.00260   0.06260   0.35500   Biso      1.000     C          -0.074976           
         C58       1.0000    0.72990   0.29560   0.36310   Biso      1.000     C          0.686204  
         C59       1.0000    0.77000   0.14170   0.95460   Biso      1.000     C          -0.093208           
         C60       1.0000    0.97650   0.47860   0.03080   Biso      1.000     C          0.049125  
         C61       1.0000    0.77000   0.35830   0.54540   Biso      1.000     C          -0.093211           
         C62       1.0000    0.81770   0.39820   0.08350   Biso      1.000     C          -0.066707           
         C63       1.0000    0.85790   0.43780   0.03000   Biso      1.000     C          -0.181071           
         C64       1.0000    0.79720   0.34580   0.47770   Biso      1.000     C          -0.112258           
         C65       1.0000    0.56510   0.29300   0.53540   Biso      1.000     C          -0.093431           
         C66       1.0000    0.58980   0.28090   0.46690   Biso      1.000     C          -0.114179           
         C67       1.0000    0.65530   0.33140   0.57410   Biso      1.000     C          -0.088243           
         C68       1.0000    0.04540   0.47840   0.09010   Biso      1.000     C          -0.201175           
         C69       1.0000    0.00260   0.43740   0.14500   Biso      1.000     C          -0.074977           
         C70       1.0000    0.70610   0.30700   0.43820   Biso      1.000     C          -0.039378           
         C71       1.0000    0.70610   0.19300   0.06180   Biso      1.000     C          -0.039378           
         C72       1.0000    0.97650   0.02140   0.46920   Biso      1.000     C          0.049135  
         C73       1.0000    0.72990   0.20440   0.13690   Biso      1.000     C          0.686204  
         C74       1.0000    0.73000   0.85830   0.45460   Biso      1.000     C          -0.093211           
         C75       1.0000    0.68230   0.89820   0.91650   Biso      1.000     C          -0.066707           
         C76       1.0000    0.64210   0.93780   0.97000   Biso      1.000     C          -0.181071           
         C77       1.0000    0.70280   0.84580   0.52230   Biso      1.000     C          -0.112256           
         C78       1.0000    0.93490   0.79300   0.46460   Biso      1.000     C          -0.093432           
         C79       1.0000    0.91020   0.78090   0.53310   Biso      1.000     C          -0.114174           
         C80       1.0000    0.84470   0.83140   0.42590   Biso      1.000     C          -0.088243           
         C81       1.0000    0.45460   0.97840   0.90990   Biso      1.000     C          -0.201175           
         C82       1.0000    0.49740   0.93740   0.85500   Biso      1.000     C          -0.074978           
         C83       1.0000    0.77010   0.70440   0.86310   Biso      1.000     C          0.686204  
         C84       1.0000    0.52350   0.52140   0.53080   Biso      1.000     C          0.049125  
         C85       1.0000    0.79390   0.69300   0.93820   Biso      1.000     C          -0.039385           
         C86       1.0000    0.73000   0.64170   0.04540   Biso      1.000     C          -0.093211           
         C87       1.0000    0.68230   0.60180   0.58350   Biso      1.000     C          -0.066707           
         C88       1.0000    0.64210   0.56220   0.53000   Biso      1.000     C          -0.181071           
         C89       1.0000    0.70280   0.65420   0.97770   Biso      1.000     C          -0.112256           
         C90       1.0000    0.93490   0.70700   0.03540   Biso      1.000     C          -0.093432           
         C91       1.0000    0.91020   0.71910   0.96690   Biso      1.000     C          -0.114174           
         C92       1.0000    0.84470   0.66860   0.07410   Biso      1.000     C          -0.088243           
         C93       1.0000    0.45460   0.52160   0.59010   Biso      1.000     C          -0.201175           
         C94       1.0000    0.49740   0.56260   0.64500   Biso      1.000     C          -0.074978           
         C95       1.0000    0.29720   0.34580   0.02230   Biso      1.000     C          -0.112256           
         C96       1.0000    0.06510   0.29300   0.96460   Biso      1.000     C          -0.093428           
         Gd1       1.0000    0.46953   0.25000   0.25000   Biso      1.000     Gd          2.084257  
         Gd2       1.0000    0.03047   0.75000   0.75000   Biso      1.000     Gd          2.084257  
         Gd3       1.0000    0.53047   0.75000   0.75000   Biso      1.000     Gd          2.084257  
         Gd4       1.0000    0.96953   0.25000   0.25000   Biso      1.000     Gd          2.084257  
         H1        1.0000    0.12320   0.50660   0.09360   Biso      1.000     H          0.121465  
         H2        1.0000    0.05170   0.43810   0.18490   Biso      1.000     H          0.118315  
         H3        1.0000    0.26140   0.87100   0.58150   Biso      1.000     H          0.121095  
         H4        1.0000    0.19450   0.93820   0.49120   Biso      1.000     H          0.121998  
         H5        1.0000    0.12390   0.86340   0.95890   Biso      1.000     H          0.115049  
         H6        1.0000    0.51290   0.77490   0.05490   Biso      1.000     H          0.101917  
         H7        1.0000    0.47210   0.75520   0.94060   Biso      1.000     H          0.110444  
         H8        1.0000    0.36130   0.83930   0.11980   Biso      1.000     H          0.103985  
         H9        1.0000    0.94830   0.93810   0.68490   Biso      1.000     H          0.118315  
         H10       1.0000    0.55170   0.43810   0.31510   Biso      1.000     H          0.118315  
         H11       1.0000    0.16980   0.61490   0.42830   Biso      1.000     H          0.102824  
         H12       1.0000    0.26140   0.62900   0.91850   Biso      1.000     H          0.121095  
         H13       1.0000    0.19450   0.56180   0.00880   Biso      1.000     H          0.121998  
         H14       1.0000    0.12390   0.63660   0.54110   Biso      1.000     H          0.115049  
         H15       1.0000    0.51290   0.72510   0.44510   Biso      1.000     H          0.101917  
         H16       1.0000    0.87680   0.00660   0.59360   Biso      1.000     H          0.121465  
         H17       1.0000    0.62320   0.50660   0.40640   Biso      1.000     H          0.121465  
         H18       1.0000    0.02790   0.25520   0.05940   Biso      1.000     H          0.110443  
         H19       1.0000    0.47210   0.74480   0.55940   Biso      1.000     H          0.110443  
         H20       1.0000    0.33020   0.11490   0.57170   Biso      1.000     H          0.102824  
         H21       1.0000    0.23860   0.12900   0.08150   Biso      1.000     H          0.121093  
         H22       1.0000    0.30550   0.06180   0.99120   Biso      1.000     H          0.122     
         H23       1.0000    0.37610   0.13660   0.45890   Biso      1.000     H          0.115049  
         H24       1.0000    0.98710   0.22510   0.55490   Biso      1.000     H          0.101917  
         H25       1.0000    0.02790   0.24480   0.44060   Biso      1.000     H          0.110444  
         H26       1.0000    0.13870   0.33930   0.88020   Biso      1.000     H          0.103985  
         H27       1.0000    0.13870   0.16070   0.61980   Biso      1.000     H          0.103985  
         H28       1.0000    0.55170   0.06190   0.18490   Biso      1.000     H          0.118315  
         H29       1.0000    0.33020   0.38510   0.92830   Biso      1.000     H          0.102824  
         H30       1.0000    0.23860   0.37100   0.41850   Biso      1.000     H          0.121093  
         H31       1.0000    0.30550   0.43820   0.50880   Biso      1.000     H          0.122     
         H32       1.0000    0.37610   0.36340   0.04110   Biso      1.000     H          0.115049  
         H33       1.0000    0.98710   0.27490   0.94510   Biso      1.000     H          0.101917  
         H34       1.0000    0.62320   0.99340   0.09360   Biso      1.000     H          0.121465  
         H35       1.0000    0.36130   0.66070   0.38020   Biso      1.000     H          0.103985  
         H36       1.0000    0.16980   0.88510   0.07170   Biso      1.000     H          0.102824  
         H37       1.0000    0.94830   0.56190   0.81510   Biso      1.000     H          0.118315  
         H38       1.0000    0.73860   0.12900   0.41850   Biso      1.000     H          0.121095  
         H39       1.0000    0.80550   0.06180   0.50880   Biso      1.000     H          0.121998  
         H40       1.0000    0.87610   0.13660   0.04110   Biso      1.000     H          0.115049  
         H41       1.0000    0.48710   0.22510   0.94510   Biso      1.000     H          0.101917  
         H42       1.0000    0.52790   0.24480   0.05940   Biso      1.000     H          0.110443  
         H43       1.0000    0.63870   0.16070   0.88020   Biso      1.000     H          0.103985  
         H44       1.0000    0.12320   0.99340   0.40640   Biso      1.000     H          0.121466  
         H45       1.0000    0.05170   0.06190   0.31510   Biso      1.000     H          0.118315  
         H46       1.0000    0.83020   0.38510   0.57170   Biso      1.000     H          0.102824  
         H47       1.0000    0.73860   0.37100   0.08150   Biso      1.000     H          0.121095  
         H48       1.0000    0.80550   0.43820   0.99120   Biso      1.000     H          0.121998  
         H49       1.0000    0.87610   0.36340   0.45890   Biso      1.000     H          0.115049  
         H50       1.0000    0.87680   0.49340   0.90640   Biso      1.000     H          0.121465  
         H51       1.0000    0.52790   0.25520   0.44060   Biso      1.000     H          0.110444  
         H52       1.0000    0.63870   0.33930   0.61980   Biso      1.000     H          0.103985  
         H53       1.0000    0.83020   0.11490   0.92830   Biso      1.000     H          0.102824  
         H54       1.0000    0.44830   0.56190   0.68490   Biso      1.000     H          0.118315  
         H55       1.0000    0.48710   0.27490   0.55490   Biso      1.000     H          0.101917  
         H56       1.0000    0.86130   0.66070   0.11980   Biso      1.000     H          0.103985  
         H57       1.0000    0.66980   0.88510   0.42830   Biso      1.000     H          0.102824  
         H58       1.0000    0.76140   0.87100   0.91850   Biso      1.000     H          0.121095  
         H59       1.0000    0.69450   0.93820   0.00880   Biso      1.000     H          0.121998  
         H60       1.0000    0.37680   0.49340   0.59360   Biso      1.000     H          0.121465  
         H61       1.0000    0.62390   0.86340   0.54110   Biso      1.000     H          0.115049  
         H62       1.0000    0.01290   0.77490   0.44510   Biso      1.000     H          0.101917  
         H63       1.0000    0.97210   0.75520   0.55940   Biso      1.000     H          0.110443  
         H64       1.0000    0.86130   0.83930   0.38020   Biso      1.000     H          0.103985  
         H65       1.0000    0.44830   0.93810   0.81510   Biso      1.000     H          0.118315  
         H66       1.0000    0.66980   0.61490   0.07170   Biso      1.000     H          0.102824  
         H67       1.0000    0.76140   0.62900   0.58150   Biso      1.000     H          0.121095  
         H68       1.0000    0.69450   0.56180   0.49120   Biso      1.000     H          0.121998  
         H69       1.0000    0.62390   0.63660   0.95890   Biso      1.000     H          0.115049  
         H70       1.0000    0.01290   0.72510   0.05490   Biso      1.000     H          0.101917  
         H71       1.0000    0.97210   0.74480   0.94060   Biso      1.000     H          0.110443  
         H72       1.0000    0.37680   0.00660   0.90640   Biso      1.000     H          0.121465  
         N1        1.0000    0.60700   0.60260   0.64150   Biso      1.000     N          0.343898  
         N2        1.0000    0.89300   0.10260   0.35850   Biso      1.000     N          0.343898  
         N3        1.0000    0.60700   0.89740   0.85850   Biso      1.000     N          0.343898  
         N4        1.0000    0.89300   0.39740   0.14150   Biso      1.000     N          0.343898  
         N5        1.0000    0.10700   0.89740   0.64150   Biso      1.000     N          0.343898  
         N6        1.0000    0.39300   0.39740   0.35850   Biso      1.000     N          0.343895  
         N7        1.0000    0.39300   0.10260   0.14150   Biso      1.000     N          0.343895  
         N8        1.0000    0.10700   0.60260   0.85850   Biso      1.000     N          0.343898  
         O1        1.0000    0.85250   0.35510   0.19425   Biso      1.000     O          -0.675898           
         O2        1.0000    0.62970   0.21980   0.17189   Biso      1.000     O          -0.730539           
         O3        1.0000    0.84500   0.19820   0.15915   Biso      1.000     O          -0.66738  
         O4        1.0000    0.85250   0.14490   0.30575   Biso      1.000     O          -0.675898           
         O5        1.0000    0.87030   0.71980   0.82811   Biso      1.000     O          -0.730539           
         O6        1.0000    0.65500   0.69820   0.84085   Biso      1.000     O          -0.66738  
         O7        1.0000    0.64750   0.64490   0.69425   Biso      1.000     O          -0.675898           
         O8        1.0000    0.87030   0.78020   0.67189   Biso      1.000     O          -0.730539           
         O9        1.0000    0.65500   0.80180   0.65915   Biso      1.000     O          -0.66738  
         O10       1.0000    0.64750   0.85510   0.80575   Biso      1.000     O          -0.675898           
         O11       1.0000    0.37030   0.71980   0.67189   Biso      1.000     O          -0.730539           
         O12       1.0000    0.14750   0.64490   0.80575   Biso      1.000     O          -0.675898           
         O13       1.0000    0.37030   0.78020   0.82811   Biso      1.000     O          -0.730539           
         O14       1.0000    0.15500   0.80180   0.84085   Biso      1.000     O          -0.66738  
         O15       1.0000    0.14750   0.85510   0.69425   Biso      1.000     O          -0.675898           
         O16       1.0000    0.12970   0.28020   0.17189   Biso      1.000     O          -0.730539           
         O17       1.0000    0.34500   0.30180   0.15915   Biso      1.000     O          -0.66738  
         O18       1.0000    0.35250   0.35510   0.30575   Biso      1.000     O          -0.675899           
         O19       1.0000    0.12970   0.21980   0.32811   Biso      1.000     O          -0.730539           
         O20       1.0000    0.34500   0.19820   0.34085   Biso      1.000     O          -0.66738  
         O21       1.0000    0.35250   0.14490   0.19425   Biso      1.000     O          -0.675899           
         O22       1.0000    0.84500   0.30180   0.34085   Biso      1.000     O          -0.66738  
         O23       1.0000    0.15500   0.69820   0.65915   Biso      1.000     O          -0.66738  
         O24       1.0000    0.62970   0.28020   0.32811   Biso      1.000     O          -0.730539 