
##########################################################################
#               Crystallographic Information Format file
#               Produced by PyCifRW module
#
#  This is a CIF file.  CIF has been adopted by the International
#  Union of Crystallography as the standard for data archiving and
#  transmission.
#
#  For information on this file format, follow the CIF links at
#  http://www.iucr.org
##########################################################################

data_image0

_cell_length_a                          10.0546
_cell_length_b                          17.7412
_cell_length_c                          19.8116
_cell_angle_alpha                       90
_cell_angle_beta                        90
_cell_angle_gamma                       90
_symmetry_space_group_name_H-M          'P 1'
_symmetry_int_tables_number             1
loop_
  _symmetry_equiv_pos_as_xyz
         'x, y, z' 
loop_
  _atom_site_label
  _atom_site_occupancy
  _atom_site_fract_x
  _atom_site_fract_y
  _atom_site_fract_z
  _atom_site_thermal_displace_type
  _atom_site_B_iso_or_equiv
  _atom_site_type_symbol
  _atom_site_charge
         C1        1.0000    0.70640   0.19230   0.43820   Biso      1.000     C          -0.029106           
         C2        1.0000    0.79580   0.15400   0.47759   Biso      1.000     C          -0.121725           
         C3        1.0000    0.58880   0.21910   0.46745   Biso      1.000     C          -0.128969           
         C4        1.0000    0.56460   0.20790   0.53530   Biso      1.000     C          -0.103734           
         C5        1.0000    0.65360   0.16800   0.57380   Biso      1.000     C          -0.105971           
         C6        1.0000    0.97610   0.02103   0.02980   Biso      1.000     C          0.080811  
         C7        1.0000    0.00290   0.06240   0.14488   Biso      1.000     C          -0.041527           
         C8        1.0000    0.81740   0.10210   0.08429   Biso      1.000     C          -0.032699           
         C9        1.0000    0.85770   0.06160   0.02931   Biso      1.000     C          -0.167227           
         C10       1.0000    0.04620   0.02210   0.08992   Biso      1.000     C          -0.162    
         C11       1.0000    0.76830   0.14120   0.54570   Biso      1.000     C          -0.107118           
         C12       1.0000    0.72800   0.29573   0.13590   Biso      1.000     C          0.61379   
         C13       1.0000    0.76830   0.35880   0.95430   Biso      1.000     C          -0.107124           
         C14       1.0000    0.79580   0.34600   0.02241   Biso      1.000     C          -0.12173  
         C15       1.0000    0.58880   0.28090   0.03255   Biso      1.000     C          -0.128969           
         C16       1.0000    0.56460   0.29210   0.96470   Biso      1.000     C          -0.103735           
         C17       1.0000    0.65360   0.33200   0.92620   Biso      1.000     C          -0.105964           
         C18       1.0000    0.97610   0.47897   0.47020   Biso      1.000     C          0.080811  
         C19       1.0000    0.00290   0.43760   0.35512   Biso      1.000     C          -0.041527           
         C20       1.0000    0.81740   0.39790   0.41571   Biso      1.000     C          -0.032699           
         C21       1.0000    0.85770   0.43840   0.47069   Biso      1.000     C          -0.167227           
         C22       1.0000    0.70640   0.30770   0.06180   Biso      1.000     C          -0.0291   
         C23       1.0000    0.04620   0.47790   0.41008   Biso      1.000     C          -0.162001           
         C24       1.0000    0.72800   0.20427   0.36410   Biso      1.000     C          0.61379   
         C25       1.0000    0.64230   0.56160   0.97069   Biso      1.000     C          -0.167234           
         C26       1.0000    0.93540   0.70790   0.46470   Biso      1.000     C          -0.103735           
         C27       1.0000    0.91120   0.71910   0.53255   Biso      1.000     C          -0.128969           
         C28       1.0000    0.70420   0.65400   0.52241   Biso      1.000     C          -0.12173  
         C29       1.0000    0.73170   0.64120   0.45430   Biso      1.000     C          -0.107124           
         C30       1.0000    0.79360   0.69230   0.56180   Biso      1.000     C          -0.0291   
         C31       1.0000    0.77200   0.70427   0.63590   Biso      1.000     C          0.61379   
         C32       1.0000    0.45380   0.97790   0.58992   Biso      1.000     C          -0.162004           
         C33       1.0000    0.64230   0.93840   0.52931   Biso      1.000     C          -0.167234           
         C34       1.0000    0.68260   0.89790   0.58429   Biso      1.000     C          -0.032694           
         C35       1.0000    0.45380   0.52210   0.91008   Biso      1.000     C          -0.162004           
         C36       1.0000    0.49710   0.93760   0.64488   Biso      1.000     C          -0.041524           
         C37       1.0000    0.84640   0.83200   0.07380   Biso      1.000     C          -0.105977           
         C38       1.0000    0.93540   0.79210   0.03530   Biso      1.000     C          -0.103728           
         C39       1.0000    0.91120   0.78090   0.96745   Biso      1.000     C          -0.12897  
         C40       1.0000    0.70420   0.84600   0.97759   Biso      1.000     C          -0.121731           
         C41       1.0000    0.73170   0.85880   0.04570   Biso      1.000     C          -0.107116           
         C42       1.0000    0.79360   0.80770   0.93820   Biso      1.000     C          -0.0291   
         C43       1.0000    0.77200   0.79573   0.86410   Biso      1.000     C          0.61379   
         C44       1.0000    0.49710   0.56240   0.85512   Biso      1.000     C          -0.041524           
         C45       1.0000    0.68260   0.60210   0.91571   Biso      1.000     C          -0.032694           
         C46       1.0000    0.52390   0.97897   0.52980   Biso      1.000     C          0.080813  
         C47       1.0000    0.22800   0.20427   0.13590   Biso      1.000     C          0.61379   
         C48       1.0000    0.20640   0.19230   0.06180   Biso      1.000     C          -0.029106           
         C49       1.0000    0.26830   0.14120   0.95430   Biso      1.000     C          -0.107125           
         C50       1.0000    0.41120   0.78090   0.53255   Biso      1.000     C          -0.128969           
         C51       1.0000    0.43540   0.79210   0.46470   Biso      1.000     C          -0.103734           
         C52       1.0000    0.34640   0.83200   0.42620   Biso      1.000     C          -0.105971           
         C53       1.0000    0.02390   0.97897   0.97020   Biso      1.000     C          0.080811  
         C54       1.0000    0.99710   0.93760   0.85512   Biso      1.000     C          -0.041527           
         C55       1.0000    0.18260   0.89790   0.91571   Biso      1.000     C          -0.032699           
         C56       1.0000    0.14230   0.93840   0.97069   Biso      1.000     C          -0.167227           
         C57       1.0000    0.95380   0.97790   0.91008   Biso      1.000     C          -0.162    
         C58       1.0000    0.27200   0.70427   0.86410   Biso      1.000     C          0.61379   
         C59       1.0000    0.20420   0.84600   0.52241   Biso      1.000     C          -0.121731           
         C60       1.0000    0.29360   0.69230   0.93820   Biso      1.000     C          -0.029106           
         C61       1.0000    0.20420   0.65400   0.97759   Biso      1.000     C          -0.121725           
         C62       1.0000    0.41120   0.71910   0.96745   Biso      1.000     C          -0.128969           
         C63       1.0000    0.43540   0.70790   0.03530   Biso      1.000     C          -0.103734           
         C64       1.0000    0.34640   0.66800   0.07380   Biso      1.000     C          -0.10597  
         C65       1.0000    0.02390   0.52103   0.52980   Biso      1.000     C          0.080811  
         C66       1.0000    0.99710   0.56240   0.64488   Biso      1.000     C          -0.041527           
         C67       1.0000    0.18260   0.60210   0.58429   Biso      1.000     C          -0.032699           
         C68       1.0000    0.14230   0.56160   0.52931   Biso      1.000     C          -0.167227           
         C69       1.0000    0.95380   0.52210   0.58992   Biso      1.000     C          -0.162001           
         C70       1.0000    0.23170   0.64120   0.04570   Biso      1.000     C          -0.107118           
         C71       1.0000    0.23170   0.85880   0.45430   Biso      1.000     C          -0.107117           
         C72       1.0000    0.29360   0.80770   0.56180   Biso      1.000     C          -0.0291   
         C73       1.0000    0.27200   0.79573   0.63590   Biso      1.000     C          0.61379   
         C74       1.0000    0.29580   0.15400   0.02241   Biso      1.000     C          -0.121724           
         C75       1.0000    0.08880   0.21910   0.03255   Biso      1.000     C          -0.128968           
         C76       1.0000    0.06460   0.20790   0.96470   Biso      1.000     C          -0.103735           
         C77       1.0000    0.15360   0.16800   0.92620   Biso      1.000     C          -0.105964           
         C78       1.0000    0.47610   0.02103   0.47020   Biso      1.000     C          0.080811  
         C79       1.0000    0.50290   0.06240   0.35512   Biso      1.000     C          -0.041527           
         C80       1.0000    0.31740   0.10210   0.41571   Biso      1.000     C          -0.032699           
         C81       1.0000    0.35770   0.06160   0.47069   Biso      1.000     C          -0.167227           
         C82       1.0000    0.54620   0.02210   0.41008   Biso      1.000     C          -0.162    
         C83       1.0000    0.22800   0.29573   0.36410   Biso      1.000     C          0.61379   
         C84       1.0000    0.20640   0.30770   0.43820   Biso      1.000     C          -0.029106           
         C85       1.0000    0.26830   0.35880   0.54570   Biso      1.000     C          -0.107125           
         C86       1.0000    0.29580   0.34600   0.47759   Biso      1.000     C          -0.121724           
         C87       1.0000    0.08880   0.28090   0.46745   Biso      1.000     C          -0.128969           
         C88       1.0000    0.06460   0.29210   0.53530   Biso      1.000     C          -0.103735           
         C89       1.0000    0.15360   0.33200   0.57380   Biso      1.000     C          -0.105964           
         C90       1.0000    0.47610   0.47897   0.02980   Biso      1.000     C          0.080811  
         C91       1.0000    0.50290   0.43760   0.14488   Biso      1.000     C          -0.041527           
         C92       1.0000    0.31740   0.39790   0.08429   Biso      1.000     C          -0.032699           
         C93       1.0000    0.35770   0.43840   0.02931   Biso      1.000     C          -0.167227           
         C94       1.0000    0.54620   0.47790   0.08992   Biso      1.000     C          -0.162    
         C95       1.0000    0.84640   0.66800   0.42620   Biso      1.000     C          -0.105964           
         C96       1.0000    0.52390   0.52103   0.97020   Biso      1.000     C          0.080813  
         Eu1       1.0000    0.53159   0.75000   0.75000   Biso      1.000     Eu          1.39133   
         Eu2       1.0000    0.96841   0.25000   0.25000   Biso      1.000     Eu          1.39133   
         Eu3       1.0000    0.46841   0.25000   0.25000   Biso      1.000     Eu          1.39133   
         Eu4       1.0000    0.03159   0.75000   0.75000   Biso      1.000     Eu          1.39133   
         H1        1.0000    0.19510   0.56120   0.49080   Biso      1.000     H          0.129846  
         H2        1.0000    0.87510   0.49470   0.59320   Biso      1.000     H          0.130267  
         H3        1.0000    0.87480   0.13650   0.45890   Biso      1.000     H          0.112541  
         H4        1.0000    0.52670   0.24450   0.44110   Biso      1.000     H          0.112071  
         H5        1.0000    0.48800   0.22750   0.55490   Biso      1.000     H          0.100098  
         H6        1.0000    0.63570   0.15920   0.61920   Biso      1.000     H          0.099733  
         H7        1.0000    0.05130   0.06140   0.18490   Biso      1.000     H          0.137907  
         H8        1.0000    0.73820   0.12920   0.08250   Biso      1.000     H          0.133058  
         H9        1.0000    0.12490   0.99470   0.09320   Biso      1.000     H          0.130267  
         H10       1.0000    0.37510   0.49470   0.90680   Biso      1.000     H          0.130267  
         H11       1.0000    0.82840   0.38570   0.92790   Biso      1.000     H          0.100004  
         H12       1.0000    0.87480   0.36350   0.04110   Biso      1.000     H          0.112542  
         H13       1.0000    0.52670   0.25550   0.05890   Biso      1.000     H          0.112071  
         H14       1.0000    0.48800   0.27250   0.94510   Biso      1.000     H          0.100098  
         H15       1.0000    0.63570   0.34080   0.88080   Biso      1.000     H          0.099732  
         H16       1.0000    0.80490   0.06120   0.99080   Biso      1.000     H          0.129846  
         H17       1.0000    0.69510   0.56120   0.00920   Biso      1.000     H          0.129846  
         H18       1.0000    0.44870   0.56140   0.81510   Biso      1.000     H          0.137907  
         H19       1.0000    0.05130   0.43860   0.31510   Biso      1.000     H          0.137907  
         H20       1.0000    0.67160   0.88570   0.07210   Biso      1.000     H          0.100004  
         H21       1.0000    0.62520   0.86350   0.95890   Biso      1.000     H          0.112542  
         H22       1.0000    0.97330   0.75550   0.94110   Biso      1.000     H          0.112071  
         H23       1.0000    0.01200   0.77250   0.05490   Biso      1.000     H          0.100098  
         H24       1.0000    0.86430   0.84080   0.11920   Biso      1.000     H          0.099733  
         H25       1.0000    0.44870   0.93860   0.68490   Biso      1.000     H          0.137907  
         H26       1.0000    0.76180   0.62920   0.91750   Biso      1.000     H          0.133058  
         H27       1.0000    0.76180   0.87080   0.58250   Biso      1.000     H          0.133058  
         H28       1.0000    0.37510   0.00530   0.59320   Biso      1.000     H          0.130267  
         H29       1.0000    0.67160   0.61430   0.42790   Biso      1.000     H          0.100004  
         H30       1.0000    0.62520   0.63650   0.54110   Biso      1.000     H          0.112542  
         H31       1.0000    0.97330   0.74450   0.55890   Biso      1.000     H          0.112071  
         H32       1.0000    0.01200   0.72750   0.44510   Biso      1.000     H          0.100098  
         H33       1.0000    0.86430   0.65920   0.38080   Biso      1.000     H          0.099732  
         H34       1.0000    0.69510   0.93880   0.49080   Biso      1.000     H          0.129846  
         H35       1.0000    0.73820   0.37080   0.41750   Biso      1.000     H          0.133058  
         H36       1.0000    0.82840   0.11430   0.57210   Biso      1.000     H          0.100004  
         H37       1.0000    0.12490   0.50530   0.40680   Biso      1.000     H          0.130267  
         H38       1.0000    0.12520   0.86350   0.54110   Biso      1.000     H          0.112542  
         H39       1.0000    0.47330   0.75550   0.55890   Biso      1.000     H          0.112071  
         H40       1.0000    0.51200   0.77250   0.44510   Biso      1.000     H          0.100098  
         H41       1.0000    0.36430   0.84080   0.38080   Biso      1.000     H          0.099732  
         H42       1.0000    0.94870   0.93860   0.81510   Biso      1.000     H          0.137907  
         H43       1.0000    0.26180   0.87080   0.91750   Biso      1.000     H          0.133058  
         H44       1.0000    0.19510   0.93880   0.00920   Biso      1.000     H          0.129846  
         H45       1.0000    0.87510   0.00530   0.90680   Biso      1.000     H          0.130267  
         H46       1.0000    0.17160   0.61430   0.07210   Biso      1.000     H          0.100004  
         H47       1.0000    0.12520   0.63650   0.95890   Biso      1.000     H          0.112541  
         H48       1.0000    0.47330   0.74450   0.94110   Biso      1.000     H          0.112071  
         H49       1.0000    0.51200   0.72750   0.05490   Biso      1.000     H          0.100098  
         H50       1.0000    0.80490   0.43880   0.50920   Biso      1.000     H          0.129846  
         H51       1.0000    0.94870   0.56140   0.68490   Biso      1.000     H          0.137907  
         H52       1.0000    0.26180   0.62920   0.58250   Biso      1.000     H          0.133058  
         H53       1.0000    0.17160   0.88570   0.42790   Biso      1.000     H          0.100004  
         H54       1.0000    0.62490   0.50530   0.09320   Biso      1.000     H          0.130267  
         H55       1.0000    0.36430   0.65920   0.11920   Biso      1.000     H          0.099732  
         H56       1.0000    0.23820   0.37080   0.08250   Biso      1.000     H          0.133058  
         H57       1.0000    0.32840   0.11430   0.92790   Biso      1.000     H          0.100005  
         H58       1.0000    0.37480   0.13650   0.04110   Biso      1.000     H          0.112541  
         H59       1.0000    0.02670   0.24450   0.05890   Biso      1.000     H          0.112071  
         H60       1.0000    0.30490   0.43880   0.99080   Biso      1.000     H          0.129846  
         H61       1.0000    0.98800   0.22750   0.94510   Biso      1.000     H          0.100098  
         H62       1.0000    0.13570   0.15920   0.88080   Biso      1.000     H          0.099732  
         H63       1.0000    0.55130   0.06140   0.31510   Biso      1.000     H          0.137907  
         H64       1.0000    0.23820   0.12920   0.41750   Biso      1.000     H          0.133058  
         H65       1.0000    0.62490   0.99470   0.40680   Biso      1.000     H          0.130267  
         H66       1.0000    0.32840   0.38570   0.57210   Biso      1.000     H          0.100005  
         H67       1.0000    0.37480   0.36350   0.45890   Biso      1.000     H          0.112541  
         H68       1.0000    0.02670   0.25550   0.44110   Biso      1.000     H          0.112071  
         H69       1.0000    0.98800   0.27250   0.55490   Biso      1.000     H          0.100098  
         H70       1.0000    0.13570   0.34080   0.61920   Biso      1.000     H          0.099732  
         H71       1.0000    0.55130   0.43860   0.18490   Biso      1.000     H          0.137907  
         H72       1.0000    0.30490   0.06120   0.50920   Biso      1.000     H          0.129846  
         N1        1.0000    0.39070   0.39658   0.14085   Biso      1.000     N          0.354506  
         N2        1.0000    0.10930   0.89658   0.85915   Biso      1.000     N          0.354506  
         N3        1.0000    0.39070   0.10342   0.35915   Biso      1.000     N          0.354506  
         N4        1.0000    0.10930   0.60342   0.64085   Biso      1.000     N          0.354506  
         N5        1.0000    0.89070   0.10342   0.14085   Biso      1.000     N          0.354506  
         N6        1.0000    0.60930   0.60342   0.85915   Biso      1.000     N          0.354505  
         N7        1.0000    0.60930   0.89658   0.64085   Biso      1.000     N          0.354505  
         N8        1.0000    0.89070   0.39658   0.35915   Biso      1.000     N          0.354506  
         O1        1.0000    0.15710   0.69754   0.84042   Biso      1.000     O          -0.639847           
         O2        1.0000    0.37190   0.78030   0.67027   Biso      1.000     O          -0.652638           
         O3        1.0000    0.14920   0.85614   0.80597   Biso      1.000     O          -0.507736           
         O4        1.0000    0.15710   0.80246   0.65958   Biso      1.000     O          -0.639847           
         O5        1.0000    0.12810   0.28030   0.32973   Biso      1.000     O          -0.652638           
         O6        1.0000    0.35080   0.35614   0.19403   Biso      1.000     O          -0.507736           
         O7        1.0000    0.34290   0.30246   0.34042   Biso      1.000     O          -0.639847           
         O8        1.0000    0.12810   0.21970   0.17027   Biso      1.000     O          -0.652638           
         O9        1.0000    0.35080   0.14386   0.30597   Biso      1.000     O          -0.507736           
         O10       1.0000    0.34290   0.19754   0.15958   Biso      1.000     O          -0.639847           
         O11       1.0000    0.62810   0.28030   0.17027   Biso      1.000     O          -0.652638           
         O12       1.0000    0.84290   0.30246   0.15958   Biso      1.000     O          -0.639847           
         O13       1.0000    0.62810   0.21970   0.32973   Biso      1.000     O          -0.652638           
         O14       1.0000    0.85080   0.14386   0.19403   Biso      1.000     O          -0.507736           
         O15       1.0000    0.84290   0.19754   0.34042   Biso      1.000     O          -0.639847           
         O16       1.0000    0.87190   0.71970   0.67027   Biso      1.000     O          -0.652638           
         O17       1.0000    0.64920   0.64386   0.80597   Biso      1.000     O          -0.507736           
         O18       1.0000    0.65710   0.69754   0.65958   Biso      1.000     O          -0.639847           
         O19       1.0000    0.87190   0.78030   0.82973   Biso      1.000     O          -0.652638           
         O20       1.0000    0.64920   0.85614   0.69403   Biso      1.000     O          -0.507736           
         O21       1.0000    0.65710   0.80246   0.84042   Biso      1.000     O          -0.639847           
         O22       1.0000    0.14920   0.64386   0.69403   Biso      1.000     O          -0.507736           
         O23       1.0000    0.85080   0.35614   0.30597   Biso      1.000     O          -0.507736           
         O24       1.0000    0.37190   0.71970   0.82973   Biso      1.000     O          -0.652638 