
##########################################################################
#               Crystallographic Information Format file
#               Produced by PyCifRW module
#
#  This is a CIF file.  CIF has been adopted by the International
#  Union of Crystallography as the standard for data archiving and
#  transmission.
#
#  For information on this file format, follow the CIF links at
#  http://www.iucr.org
##########################################################################

data_image0

_cell_length_a                          15.352
_cell_length_b                          15.352
_cell_length_c                          12.226
_cell_angle_alpha                       90
_cell_angle_beta                        90
_cell_angle_gamma                       90
_symmetry_space_group_name_H-M          'P 1'
_symmetry_int_tables_number             1
loop_
  _symmetry_equiv_pos_as_xyz
         'x, y, z' 
loop_
  _atom_site_label
  _atom_site_occupancy
  _atom_site_fract_x
  _atom_site_fract_y
  _atom_site_fract_z
  _atom_site_thermal_displace_type
  _atom_site_B_iso_or_equiv
  _atom_site_type_symbol
  _atom_site_charge
         C1        1.0000    0.41490   0.86350   0.04340   Biso      1.000     C          0.618831  
         C2        1.0000    0.06900   0.96280   0.11850   Biso      1.000     C          -0.153524           
         C3        1.0000    0.06730   0.96060   0.23120   Biso      1.000     C          -0.014919           
         C4        1.0000    0.63650   0.41490   0.79340   Biso      1.000     C          0.618831  
         C5        1.0000    0.56900   0.46280   0.61850   Biso      1.000     C          -0.153524           
         C6        1.0000    0.56730   0.46060   0.73120   Biso      1.000     C          -0.014919           
         C7        1.0000    0.46280   0.93100   0.86850   Biso      1.000     C          -0.153524           
         C8        1.0000    0.46060   0.93270   0.98120   Biso      1.000     C          -0.014919           
         C9        1.0000    0.91490   0.36350   0.54340   Biso      1.000     C          0.618831  
         C10       1.0000    0.96280   0.43100   0.36850   Biso      1.000     C          -0.153524           
         C11       1.0000    0.96060   0.43270   0.48120   Biso      1.000     C          -0.014919           
         C12       1.0000    0.08510   0.63650   0.54340   Biso      1.000     C          0.618831  
         C13       1.0000    0.03720   0.56900   0.36850   Biso      1.000     C          -0.153524           
         C14       1.0000    0.03940   0.56730   0.48120   Biso      1.000     C          -0.014919           
         C15       1.0000    0.58510   0.13650   0.04340   Biso      1.000     C          0.618831  
         C16       1.0000    0.53720   0.06900   0.86850   Biso      1.000     C          -0.153524           
         C17       1.0000    0.53940   0.06730   0.98120   Biso      1.000     C          -0.014919           
         C18       1.0000    0.13650   0.58510   0.95660   Biso      1.000     C          0.618831  
         C19       1.0000    0.13650   0.91490   0.29340   Biso      1.000     C          0.6188319999999999  
         C20       1.0000    0.93270   0.03940   0.23120   Biso      1.000     C          -0.014919           
         C21       1.0000    0.93100   0.03720   0.11850   Biso      1.000     C          -0.153524           
         C22       1.0000    0.86350   0.08510   0.29340   Biso      1.000     C          0.618831  
         C23       1.0000    0.00000   0.00000   0.28890   Biso      1.000     C          -0.11593800000000001          
         C24       1.0000    0.50000   0.50000   0.55960   Biso      1.000     C          0.07820099999999999           
         C25       1.0000    0.50000   0.50000   0.78890   Biso      1.000     C          -0.11593900000000001          
         C26       1.0000    0.00000   0.50000   0.30960   Biso      1.000     C          0.07820099999999999           
         C27       1.0000    0.00000   0.50000   0.53890   Biso      1.000     C          -0.11593800000000001          
         C28       1.0000    0.50000   0.00000   0.80960   Biso      1.000     C          0.07820099999999999           
         C29       1.0000    0.50000   0.00000   0.03890   Biso      1.000     C          -0.11593800000000001          
         C30       1.0000    0.50000   0.00000   0.69040   Biso      1.000     C          0.07820099999999999           
         C31       1.0000    0.06900   0.53720   0.13150   Biso      1.000     C          -0.153524           
         C32       1.0000    0.50000   0.00000   0.46110   Biso      1.000     C          -0.115941           
         C33       1.0000    0.00000   0.50000   0.96110   Biso      1.000     C          -0.115941           
         C34       1.0000    0.50000   0.50000   0.44040   Biso      1.000     C          0.07820099999999999           
         C35       1.0000    0.50000   0.50000   0.21110   Biso      1.000     C          -0.115941           
         C36       1.0000    0.00000   0.00000   0.94040   Biso      1.000     C          0.07820099999999999           
         C37       1.0000    0.00000   0.00000   0.71110   Biso      1.000     C          -0.115941           
         C38       1.0000    0.36350   0.58510   0.79340   Biso      1.000     C          0.618831  
         C39       1.0000    0.43100   0.53720   0.61850   Biso      1.000     C          -0.153524           
         C40       1.0000    0.43270   0.53940   0.73120   Biso      1.000     C          -0.014918           
         C41       1.0000    0.00000   0.50000   0.19040   Biso      1.000     C          0.07820099999999999           
         C42       1.0000    0.06730   0.53940   0.01880   Biso      1.000     C          -0.014916999999999998         
         C43       1.0000    0.00000   0.00000   0.05960   Biso      1.000     C          0.07820099999999999           
         C44       1.0000    0.58510   0.36350   0.20660   Biso      1.000     C          0.618831  
         C45       1.0000    0.93100   0.46280   0.13150   Biso      1.000     C          -0.153524           
         C46       1.0000    0.46280   0.56900   0.38150   Biso      1.000     C          -0.153524           
         C47       1.0000    0.08510   0.86350   0.70660   Biso      1.000     C          0.618831  
         C48       1.0000    0.86350   0.41490   0.95660   Biso      1.000     C          0.618831  
         C49       1.0000    0.53940   0.43270   0.26880   Biso      1.000     C          -0.014916999999999998         
         C50       1.0000    0.46060   0.56730   0.26880   Biso      1.000     C          -0.014916999999999998         
         C51       1.0000    0.03720   0.93100   0.88150   Biso      1.000     C          -0.153524           
         C52       1.0000    0.03940   0.93270   0.76880   Biso      1.000     C          -0.014916999999999998         
         C53       1.0000    0.43270   0.96060   0.51880   Biso      1.000     C          -0.014918           
         C54       1.0000    0.91490   0.13650   0.70660   Biso      1.000     C          0.618831  
         C55       1.0000    0.93270   0.46060   0.01880   Biso      1.000     C          -0.014916999999999998         
         C56       1.0000    0.53720   0.43100   0.38150   Biso      1.000     C          -0.153524           
         C57       1.0000    0.43100   0.96280   0.63150   Biso      1.000     C          -0.153524           
         C58       1.0000    0.96060   0.06730   0.76880   Biso      1.000     C          -0.014916999999999998         
         C59       1.0000    0.63650   0.08510   0.45660   Biso      1.000     C          0.618831  
         C60       1.0000    0.56900   0.03720   0.63150   Biso      1.000     C          -0.153524           
         C61       1.0000    0.36350   0.91490   0.45660   Biso      1.000     C          0.618831  
         C62       1.0000    0.56730   0.03940   0.51880   Biso      1.000     C          -0.014916999999999998         
         C63       1.0000    0.41490   0.63650   0.20660   Biso      1.000     C          0.618831  
         C64       1.0000    0.96280   0.06900   0.88150   Biso      1.000     C          -0.153524           
         H1        1.0000    0.88270   0.06110   0.08030   Biso      1.000     H          0.12103399999999999           
         H2        1.0000    0.75000   0.18310   0.87500   Biso      1.000     H          0.416125  
         H3        1.0000    0.00000   0.00000   0.63340   Biso      1.000     H          0.134249  
         H4        1.0000    0.31690   0.75000   0.62500   Biso      1.000     H          0.416125  
         H5        1.0000    0.38270   0.56110   0.58030   Biso      1.000     H          0.12103399999999999           
         H6        1.0000    0.06110   0.88270   0.91970   Biso      1.000     H          0.12103399999999999           
         H7        1.0000    0.11730   0.93890   0.08030   Biso      1.000     H          0.12103399999999999           
         H8        1.0000    0.25000   0.68310   0.37500   Biso      1.000     H          0.416125  
         H9        1.0000    0.75000   0.31690   0.37500   Biso      1.000     H          0.416125  
         H10       1.0000    0.50000   0.50000   0.13340   Biso      1.000     H          0.134249  
         H11       1.0000    0.68310   0.25000   0.62500   Biso      1.000     H          0.416125  
         H12       1.0000    0.56110   0.38270   0.41970   Biso      1.000     H          0.12103399999999999           
         H13       1.0000    0.18310   0.75000   0.12500   Biso      1.000     H          0.416125  
         H14       1.0000    0.00000   0.50000   0.88340   Biso      1.000     H          0.134249  
         H15       1.0000    0.61730   0.43890   0.58030   Biso      1.000     H          0.12103399999999999           
         H16       1.0000    0.61730   0.06110   0.66970   Biso      1.000     H          0.12103399999999999           
         H17       1.0000    0.11730   0.56110   0.16970   Biso      1.000     H          0.12103399999999999           
         H18       1.0000    0.50000   0.50000   0.86660   Biso      1.000     H          0.134249  
         H19       1.0000    0.56110   0.11730   0.83030   Biso      1.000     H          0.12103399999999999           
         H20       1.0000    0.81690   0.25000   0.12500   Biso      1.000     H          0.416125  
         H21       1.0000    0.00000   0.50000   0.61660   Biso      1.000     H          0.134249  
         H22       1.0000    0.38270   0.93890   0.66970   Biso      1.000     H          0.12103399999999999           
         H23       1.0000    0.06110   0.61730   0.33030   Biso      1.000     H          0.12103399999999999           
         H24       1.0000    0.50000   0.00000   0.11660   Biso      1.000     H          0.134249  
         H25       1.0000    0.93890   0.11730   0.91970   Biso      1.000     H          0.12103399999999999           
         H26       1.0000    0.25000   0.81690   0.87500   Biso      1.000     H          0.416125  
         H27       1.0000    0.43890   0.61730   0.41970   Biso      1.000     H          0.12103399999999999           
         H28       1.0000    0.50000   0.00000   0.38340   Biso      1.000     H          0.134249  
         H29       1.0000    0.00000   0.00000   0.36660   Biso      1.000     H          0.134249  
         H30       1.0000    0.88270   0.43890   0.16970   Biso      1.000     H          0.12103399999999999           
         H31       1.0000    0.43890   0.88270   0.83030   Biso      1.000     H          0.12103399999999999           
         H32       1.0000    0.93890   0.38270   0.33030   Biso      1.000     H          0.12103399999999999           
         In1       1.0000    0.31240   0.68760   0.00000   Biso      1.000     In          1.590967  
         In2       1.0000    0.81240   0.18760   0.50000   Biso      1.000     In          1.590967  
         In3       1.0000    0.18760   0.81240   0.50000   Biso      1.000     In          1.590967  
         In4       1.0000    0.68760   0.31240   0.00000   Biso      1.000     In          1.590967  
         In5       1.0000    0.68760   0.18760   0.25000   Biso      1.000     In          1.590967  
         In6       1.0000    0.31240   0.81240   0.25000   Biso      1.000     In          1.590967  
         In7       1.0000    0.81240   0.31240   0.75000   Biso      1.000     In          1.590967  
         In8       1.0000    0.18760   0.68760   0.75000   Biso      1.000     In          1.590967  
         O1        1.0000    0.61130   0.38310   0.11420   Biso      1.000     O          -0.5409390000000001           
         O2        1.0000    0.74500   0.25000   0.62500   Biso      1.000     O          -0.956118           
         O3        1.0000    0.24500   0.75000   0.12500   Biso      1.000     O          -0.956117           
         O4        1.0000    0.88870   0.11690   0.61420   Biso      1.000     O          -0.5409390000000001           
         O5        1.0000    0.38870   0.61690   0.11420   Biso      1.000     O          -0.5409390000000001           
         O6        1.0000    0.25500   0.75000   0.62500   Biso      1.000     O          -0.956117           
         O7        1.0000    0.59290   0.29050   0.25640   Biso      1.000     O          -0.604226           
         O8        1.0000    0.40710   0.70950   0.25640   Biso      1.000     O          -0.604226           
         O9        1.0000    0.11690   0.61130   0.86420   Biso      1.000     O          -0.5409390000000001           
         O10       1.0000    0.25000   0.75500   0.87500   Biso      1.000     O          -0.956117           
         O11       1.0000    0.59290   0.20950   0.99360   Biso      1.000     O          -0.604226           
         O12       1.0000    0.61130   0.11690   0.13580   Biso      1.000     O          -0.5409390000000001           
         O13       1.0000    0.61690   0.11130   0.36420   Biso      1.000     O          -0.5409390000000001           
         O14       1.0000    0.70950   0.09290   0.50640   Biso      1.000     O          -0.604226           
         O15       1.0000    0.09290   0.70950   0.49360   Biso      1.000     O          -0.604226           
         O16       1.0000    0.11130   0.61690   0.63580   Biso      1.000     O          -0.5409390000000001           
         O17       1.0000    0.90710   0.29050   0.49360   Biso      1.000     O          -0.604226           
         O18       1.0000    0.88870   0.38310   0.63580   Biso      1.000     O          -0.5409390000000001           
         O19       1.0000    0.38310   0.88870   0.36420   Biso      1.000     O          -0.5409390000000001           
         O20       1.0000    0.29050   0.90710   0.50640   Biso      1.000     O          -0.604226           
         O21       1.0000    0.40710   0.79050   0.99360   Biso      1.000     O          -0.604226           
         O22       1.0000    0.38870   0.88310   0.13580   Biso      1.000     O          -0.5409390000000001           
         O23       1.0000    0.70950   0.40710   0.74360   Biso      1.000     O          -0.604226           
         O24       1.0000    0.75500   0.25000   0.12500   Biso      1.000     O          -0.956117           
         O25       1.0000    0.61690   0.38870   0.88580   Biso      1.000     O          -0.5409390000000001           
         O26       1.0000    0.20950   0.90710   0.24360   Biso      1.000     O          -0.604226           
         O27       1.0000    0.11690   0.88870   0.38580   Biso      1.000     O          -0.5409390000000001           
         O28       1.0000    0.79050   0.40710   0.00640   Biso      1.000     O          -0.604226           
         O29       1.0000    0.79050   0.09290   0.24360   Biso      1.000     O          -0.604226           
         O30       1.0000    0.88310   0.11130   0.38580   Biso      1.000     O          -0.5409390000000001           
         O31       1.0000    0.11130   0.88310   0.61420   Biso      1.000     O          -0.5409390000000001           
         O32       1.0000    0.29050   0.59290   0.74360   Biso      1.000     O          -0.604226           
         O33       1.0000    0.38310   0.61130   0.88580   Biso      1.000     O          -0.5409390000000001           
         O34       1.0000    0.09290   0.79050   0.75640   Biso      1.000     O          -0.604226           
         O35       1.0000    0.20950   0.59290   0.00640   Biso      1.000     O          -0.604226           
         O36       1.0000    0.75000   0.24500   0.87500   Biso      1.000     O          -0.956118           
         O37       1.0000    0.25000   0.74500   0.37500   Biso      1.000     O          -0.956117           
         O38       1.0000    0.75000   0.25500   0.37500   Biso      1.000     O          -0.956118           
         O39       1.0000    0.88310   0.38870   0.86420   Biso      1.000     O          -0.5409390000000001           
         O40       1.0000    0.90710   0.20950   0.75640   Biso      1.000     O          -0.604226 