
##########################################################################
#               Crystallographic Information Format file
#               Produced by PyCifRW module
#
#  This is a CIF file.  CIF has been adopted by the International
#  Union of Crystallography as the standard for data archiving and
#  transmission.
#
#  For information on this file format, follow the CIF links at
#  http://www.iucr.org
##########################################################################

data_image0

_cell_length_a                          15.5097
_cell_length_b                          15.5097
_cell_length_c                          12.3197
_cell_angle_alpha                       90
_cell_angle_beta                        90
_cell_angle_gamma                       90
_symmetry_space_group_name_H-M          'P 1'
_symmetry_int_tables_number             1
loop_
  _symmetry_equiv_pos_as_xyz
         'x, y, z' 
loop_
  _atom_site_label
  _atom_site_occupancy
  _atom_site_fract_x
  _atom_site_fract_y
  _atom_site_fract_z
  _atom_site_thermal_displace_type
  _atom_site_B_iso_or_equiv
  _atom_site_type_symbol
  _atom_site_charge
         C1        1.0000    0.42723   0.52791   0.11807   Biso      1.000     C          -0.158629           
         C2        1.0000    0.07277   0.52791   0.63193   Biso      1.000     C          -0.15863  
         C3        1.0000    0.93098   0.03618   0.73123   Biso      1.000     C          -0.029963           
         C4        1.0000    0.00000   0.00000   0.43959   Biso      1.000     C          0.08043099999999999           
         C5        1.0000    0.00000   0.00000   0.21164   Biso      1.000     C          -0.120754           
         C6        1.0000    0.86123   0.41321   0.45627   Biso      1.000     C          0.6203029999999999  
         C7        1.0000    0.93098   0.46382   0.51877   Biso      1.000     C          -0.029963           
         C8        1.0000    0.92723   0.47209   0.63193   Biso      1.000     C          -0.15863  
         C9        1.0000    0.43098   0.53618   0.23123   Biso      1.000     C          -0.029963           
         C10       1.0000    0.50000   0.50000   0.93959   Biso      1.000     C          0.08043099999999999           
         C11       1.0000    0.50000   0.50000   0.71164   Biso      1.000     C          -0.120753           
         C12       1.0000    0.36123   0.91321   0.95627   Biso      1.000     C          0.6203029999999999  
         C13       1.0000    0.43098   0.96382   0.01877   Biso      1.000     C          -0.029963           
         C14       1.0000    0.42723   0.97209   0.13193   Biso      1.000     C          -0.15863  
         C15       1.0000    0.86123   0.08679   0.79373   Biso      1.000     C          0.6203029999999999  
         C16       1.0000    0.57277   0.47209   0.11807   Biso      1.000     C          -0.15863  
         C17       1.0000    0.91321   0.36123   0.04373   Biso      1.000     C          0.6203029999999999  
         C18       1.0000    0.96382   0.43098   0.98123   Biso      1.000     C          -0.029963           
         C19       1.0000    0.97209   0.42723   0.86807   Biso      1.000     C          -0.15863  
         C20       1.0000    0.50000   0.50000   0.06041   Biso      1.000     C          0.08043099999999999           
         C21       1.0000    0.02791   0.57277   0.86807   Biso      1.000     C          -0.15863  
         C22       1.0000    0.03618   0.56902   0.98123   Biso      1.000     C          -0.029963           
         C23       1.0000    0.41321   0.86123   0.54373   Biso      1.000     C          0.6203029999999999  
         C24       1.0000    0.46382   0.93098   0.48123   Biso      1.000     C          -0.029963           
         C25       1.0000    0.47209   0.92723   0.36807   Biso      1.000     C          -0.158629           
         C26       1.0000    0.08679   0.63877   0.04373   Biso      1.000     C          0.6203029999999999  
         C27       1.0000    0.13877   0.91321   0.79373   Biso      1.000     C          0.6203029999999999  
         C28       1.0000    0.06902   0.96382   0.73123   Biso      1.000     C          -0.029963           
         C29       1.0000    0.58679   0.13877   0.54373   Biso      1.000     C          0.6203029999999999  
         C30       1.0000    0.53618   0.06902   0.48123   Biso      1.000     C          -0.029963           
         C31       1.0000    0.06902   0.53618   0.51877   Biso      1.000     C          -0.029963           
         C32       1.0000    0.52791   0.07277   0.36807   Biso      1.000     C          -0.15863  
         C33       1.0000    0.13877   0.58679   0.45627   Biso      1.000     C          0.6203029999999999  
         C34       1.0000    0.50000   0.00000   0.18959   Biso      1.000     C          0.08043099999999999           
         C35       1.0000    0.50000   0.50000   0.28836   Biso      1.000     C          -0.120753           
         C36       1.0000    0.58679   0.36123   0.70627   Biso      1.000     C          0.6203029999999999  
         C37       1.0000    0.53618   0.43098   0.76877   Biso      1.000     C          -0.029963           
         C38       1.0000    0.52791   0.42723   0.88193   Biso      1.000     C          -0.15863  
         C39       1.0000    0.36123   0.58679   0.29373   Biso      1.000     C          0.6203029999999999  
         C40       1.0000    0.00000   0.00000   0.56041   Biso      1.000     C          0.08043099999999999           
         C41       1.0000    0.00000   0.00000   0.78836   Biso      1.000     C          -0.120753           
         C42       1.0000    0.08679   0.86123   0.20627   Biso      1.000     C          0.6203029999999999  
         C43       1.0000    0.03618   0.93098   0.26877   Biso      1.000     C          -0.029963           
         C44       1.0000    0.02791   0.92723   0.38193   Biso      1.000     C          -0.15863  
         C45       1.0000    0.50000   0.00000   0.31041   Biso      1.000     C          0.08043099999999999           
         C46       1.0000    0.50000   0.00000   0.53836   Biso      1.000     C          -0.120753           
         C47       1.0000    0.91321   0.13877   0.20627   Biso      1.000     C          0.6203029999999999  
         C48       1.0000    0.50000   0.00000   0.96164   Biso      1.000     C          -0.120753           
         C49       1.0000    0.07277   0.97209   0.61807   Biso      1.000     C          -0.15863  
         C50       1.0000    0.97209   0.07277   0.38193   Biso      1.000     C          -0.15863  
         C51       1.0000    0.92723   0.02791   0.61807   Biso      1.000     C          -0.15863  
         C52       1.0000    0.57277   0.02791   0.13193   Biso      1.000     C          -0.15863  
         C53       1.0000    0.56902   0.03618   0.01877   Biso      1.000     C          -0.029963           
         C54       1.0000    0.63877   0.08679   0.95627   Biso      1.000     C          0.6203029999999999  
         C55       1.0000    0.00000   0.50000   0.46164   Biso      1.000     C          -0.120753           
         C56       1.0000    0.00000   0.50000   0.68959   Biso      1.000     C          0.08043099999999999           
         C57       1.0000    0.96382   0.06902   0.26877   Biso      1.000     C          -0.029963           
         C58       1.0000    0.56902   0.46382   0.23123   Biso      1.000     C          -0.029963           
         C59       1.0000    0.46382   0.56902   0.76877   Biso      1.000     C          -0.029963           
         C60       1.0000    0.41321   0.63877   0.70627   Biso      1.000     C          0.6203029999999999  
         C61       1.0000    0.00000   0.50000   0.03836   Biso      1.000     C          -0.120753           
         C62       1.0000    0.00000   0.50000   0.81041   Biso      1.000     C          0.08043099999999999           
         C63       1.0000    0.63877   0.41321   0.29373   Biso      1.000     C          0.6203029999999999  
         C64       1.0000    0.47209   0.57277   0.88193   Biso      1.000     C          -0.15863  
         H1        1.0000    0.37258   0.54118   0.08397   Biso      1.000     H          0.12570599999999998           
         H2        1.0000    0.62742   0.45882   0.08397   Biso      1.000     H          0.12570599999999998           
         H3        1.0000    0.04118   0.62742   0.83397   Biso      1.000     H          0.12570599999999998           
         H4        1.0000    0.81264   0.25000   0.62500   Biso      1.000     H          0.447604  
         H5        1.0000    0.31264   0.75000   0.12500   Biso      1.000     H          0.447604  
         H6        1.0000    0.68736   0.25000   0.12500   Biso      1.000     H          0.447604  
         H7        1.0000    0.18736   0.75000   0.62500   Biso      1.000     H          0.447604  
         H8        1.0000    0.75000   0.31264   0.87500   Biso      1.000     H          0.447604  
         H9        1.0000    0.25000   0.81264   0.37500   Biso      1.000     H          0.447604  
         H10       1.0000    0.75000   0.18736   0.37500   Biso      1.000     H          0.447604  
         H11       1.0000    0.25000   0.68736   0.87500   Biso      1.000     H          0.447604  
         H12       1.0000    0.00000   0.00000   0.13078   Biso      1.000     H          0.132198  
         H13       1.0000    0.50000   0.00000   0.88078   Biso      1.000     H          0.132197  
         H14       1.0000    0.00000   0.50000   0.38078   Biso      1.000     H          0.132198  
         H15       1.0000    0.00000   0.50000   0.11922   Biso      1.000     H          0.132197  
         H16       1.0000    0.50000   0.00000   0.61922   Biso      1.000     H          0.132197  
         H17       1.0000    0.00000   0.00000   0.86922   Biso      1.000     H          0.132197  
         H18       1.0000    0.12742   0.95882   0.58397   Biso      1.000     H          0.12570599999999998           
         H19       1.0000    0.50000   0.50000   0.63078   Biso      1.000     H          0.132198  
         H20       1.0000    0.50000   0.50000   0.36922   Biso      1.000     H          0.132197  
         H21       1.0000    0.95882   0.37258   0.83397   Biso      1.000     H          0.12570599999999998           
         H22       1.0000    0.87258   0.45882   0.66603   Biso      1.000     H          0.12570599999999998           
         H23       1.0000    0.12742   0.54118   0.66603   Biso      1.000     H          0.12570599999999998           
         H24       1.0000    0.62742   0.04118   0.16603   Biso      1.000     H          0.12570599999999998           
         H25       1.0000    0.45882   0.87258   0.33397   Biso      1.000     H          0.12570599999999998           
         H26       1.0000    0.45882   0.62742   0.91603   Biso      1.000     H          0.12570599999999998           
         H27       1.0000    0.54118   0.12742   0.33397   Biso      1.000     H          0.12570599999999998           
         H28       1.0000    0.95882   0.12742   0.41603   Biso      1.000     H          0.12570599999999998           
         H29       1.0000    0.37258   0.95882   0.16603   Biso      1.000     H          0.12570599999999998           
         H30       1.0000    0.87258   0.04118   0.58397   Biso      1.000     H          0.12570599999999998           
         H31       1.0000    0.04118   0.87258   0.41603   Biso      1.000     H          0.12570599999999998           
         H32       1.0000    0.54118   0.37258   0.91603   Biso      1.000     H          0.12570599999999998           
         In1       1.0000    0.31191   0.81191   0.75000   Biso      1.000     In          1.552376  
         In2       1.0000    0.81191   0.31191   0.25000   Biso      1.000     In          1.552376  
         In3       1.0000    0.68809   0.18809   0.75000   Biso      1.000     In          1.552376  
         In4       1.0000    0.18809   0.68809   0.25000   Biso      1.000     In          1.552376  
         In5       1.0000    0.81191   0.18809   0.00000   Biso      1.000     In          1.552376  
         In6       1.0000    0.18809   0.81191   0.00000   Biso      1.000     In          1.552376  
         In7       1.0000    0.68809   0.31191   0.50000   Biso      1.000     In          1.552376  
         In8       1.0000    0.31191   0.68809   0.50000   Biso      1.000     In          1.552376  
         O1        1.0000    0.11679   0.61266   0.36447   Biso      1.000     O          -0.547349           
         O2        1.0000    0.79299   0.40826   0.50728   Biso      1.000     O          -0.567044           
         O3        1.0000    0.88321   0.38734   0.36447   Biso      1.000     O          -0.547349           
         O4        1.0000    0.38321   0.88734   0.86447   Biso      1.000     O          -0.547349           
         O5        1.0000    0.20701   0.59174   0.50728   Biso      1.000     O          -0.567044           
         O6        1.0000    0.59174   0.29299   0.75728   Biso      1.000     O          -0.567044           
         O7        1.0000    0.88734   0.11679   0.11447   Biso      1.000     O          -0.547349           
         O8        1.0000    0.11266   0.88321   0.11447   Biso      1.000     O          -0.547349           
         O9        1.0000    0.61679   0.11266   0.86447   Biso      1.000     O          -0.547349           
         O10       1.0000    0.90826   0.20701   0.25728   Biso      1.000     O          -0.567044           
         O11       1.0000    0.40826   0.70701   0.75728   Biso      1.000     O          -0.567044           
         O12       1.0000    0.29299   0.90826   0.00728   Biso      1.000     O          -0.567044           
         O13       1.0000    0.38734   0.61679   0.61447   Biso      1.000     O          -0.547349           
         O14       1.0000    0.70701   0.09174   0.00728   Biso      1.000     O          -0.567044           
         O15       1.0000    0.09174   0.79299   0.25728   Biso      1.000     O          -0.567044           
         O16       1.0000    0.61679   0.38734   0.38553   Biso      1.000     O          -0.547349           
         O17       1.0000    0.88734   0.38321   0.13553   Biso      1.000     O          -0.547349           
         O18       1.0000    0.70701   0.40826   0.24272   Biso      1.000     O          -0.567044           
         O19       1.0000    0.38321   0.61266   0.38553   Biso      1.000     O          -0.547349           
         O20       1.0000    0.79299   0.09174   0.74272   Biso      1.000     O          -0.567044           
         O21       1.0000    0.88321   0.11266   0.88553   Biso      1.000     O          -0.547349           
         O22       1.0000    0.11679   0.88734   0.88553   Biso      1.000     O          -0.547349           
         O23       1.0000    0.20701   0.90826   0.74272   Biso      1.000     O          -0.567044           
         O24       1.0000    0.09174   0.70701   0.99272   Biso      1.000     O          -0.567044           
         O25       1.0000    0.11266   0.61679   0.13553   Biso      1.000     O          -0.547349           
         O26       1.0000    0.59174   0.20701   0.49272   Biso      1.000     O          -0.567044           
         O27       1.0000    0.75815   0.25000   0.62500   Biso      1.000     O          -0.9779030000000001           
         O28       1.0000    0.61266   0.11679   0.63553   Biso      1.000     O          -0.547349           
         O29       1.0000    0.25815   0.75000   0.12500   Biso      1.000     O          -0.9779030000000001           
         O30       1.0000    0.74185   0.25000   0.12500   Biso      1.000     O          -0.9779030000000001           
         O31       1.0000    0.40826   0.79299   0.49272   Biso      1.000     O          -0.567044           
         O32       1.0000    0.24185   0.75000   0.62500   Biso      1.000     O          -0.9779030000000001           
         O33       1.0000    0.38734   0.88321   0.63553   Biso      1.000     O          -0.547349           
         O34       1.0000    0.75000   0.25815   0.87500   Biso      1.000     O          -0.9779030000000001           
         O35       1.0000    0.29299   0.59174   0.24272   Biso      1.000     O          -0.567044           
         O36       1.0000    0.25000   0.75815   0.37500   Biso      1.000     O          -0.9779030000000001           
         O37       1.0000    0.90826   0.29299   0.99272   Biso      1.000     O          -0.567044           
         O38       1.0000    0.75000   0.24185   0.37500   Biso      1.000     O          -0.9779030000000001           
         O39       1.0000    0.25000   0.74185   0.87500   Biso      1.000     O          -0.9779030000000001           
         O40       1.0000    0.61266   0.38321   0.61447   Biso      1.000     O          -0.547349 