
##########################################################################
#               Crystallographic Information Format file
#               Produced by PyCifRW module
#
#  This is a CIF file.  CIF has been adopted by the International
#  Union of Crystallography as the standard for data archiving and
#  transmission.
#
#  For information on this file format, follow the CIF links at
#  http://www.iucr.org
##########################################################################

data_image0

_cell_length_a                          12.3156
_cell_length_b                          15.5113
_cell_length_c                          18.9521
_cell_angle_alpha                       90
_cell_angle_beta                        90
_cell_angle_gamma                       90
_symmetry_space_group_name_H-M          'P 1'
_symmetry_int_tables_number             1
loop_
  _symmetry_equiv_pos_as_xyz
         'x, y, z' 
loop_
  _atom_site_label
  _atom_site_occupancy
  _atom_site_fract_x
  _atom_site_fract_y
  _atom_site_fract_z
  _atom_site_thermal_displace_type
  _atom_site_B_iso_or_equiv
  _atom_site_type_symbol
  _atom_site_charge
         C1        1.0000    0.50710   0.66496   0.93787   Biso      1.000     C          0.090777  
         C2        1.0000    0.02996   0.70406   0.97142   Biso      1.000     C          -0.156855           
         C3        1.0000    0.94539   0.76083   0.96028   Biso      1.000     C          0.045754  
         C4        1.0000    0.09746   0.78377   0.52778   Biso      1.000     C          0.079829  
         C5        1.0000    0.93760   0.82859   0.00637   Biso      1.000     C          -0.16411  
         C6        1.0000    0.00710   0.83504   0.06213   Biso      1.000     C          0.090783  
         C7        1.0000    0.03112   0.84655   0.76764   Biso      1.000     C          0.077573  
         C8        1.0000    0.06106   0.57884   0.72584   Biso      1.000     C          0.557248  
         C9        1.0000    0.13655   0.92157   0.69067   Biso      1.000     C          0.085443  
         C10       1.0000    0.99908   0.49774   0.74509   Biso      1.000     C          0.033362  
         C11       1.0000    0.02561   0.42024   0.71354   Biso      1.000     C          -0.161496           
         C12       1.0000    0.63771   0.25298   0.40428   Biso      1.000     C          0.549275  
         C13       1.0000    0.96888   0.34655   0.73236   Biso      1.000     C          0.077575  
         C14       1.0000    0.58385   0.99830   0.79337   Biso      1.000     C          -0.142749           
         C15       1.0000    0.63655   0.92157   0.80933   Biso      1.000     C          0.085443  
         C16       1.0000    0.86345   0.42157   0.80933   Biso      1.000     C          0.085443  
         C17       1.0000    0.53112   0.84655   0.73236   Biso      1.000     C          0.077573  
         C18       1.0000    0.47439   0.92024   0.71354   Biso      1.000     C          -0.161496           
         C19       1.0000    0.50092   0.99774   0.74509   Biso      1.000     C          0.033364  
         C20       1.0000    0.43894   0.07884   0.72584   Biso      1.000     C          0.557248  
         C21       1.0000    0.63655   0.57843   0.30933   Biso      1.000     C          0.085443  
         C22       1.0000    0.40254   0.28377   0.52778   Biso      1.000     C          0.079829  
         C23       1.0000    0.47004   0.29594   0.47142   Biso      1.000     C          -0.156847           
         C24       1.0000    0.55461   0.23917   0.46028   Biso      1.000     C          0.045752  
         C25       1.0000    0.09746   0.71623   0.02778   Biso      1.000     C          0.079837  
         C26       1.0000    0.02996   0.79594   0.47142   Biso      1.000     C          -0.156847           
         C27       1.0000    0.06106   0.92116   0.22584   Biso      1.000     C          0.557248  
         C28       1.0000    0.99908   0.00226   0.24509   Biso      1.000     C          0.033362  
         C29       1.0000    0.53112   0.65345   0.23236   Biso      1.000     C          0.077573  
         C30       1.0000    0.63771   0.24702   0.90428   Biso      1.000     C          0.549275  
         C31       1.0000    0.47439   0.57976   0.21354   Biso      1.000     C          -0.161496           
         C32       1.0000    0.50092   0.50226   0.24509   Biso      1.000     C          0.033363  
         C33       1.0000    0.43894   0.42116   0.22584   Biso      1.000     C          0.557248  
         C34       1.0000    0.40254   0.21623   0.02778   Biso      1.000     C          0.079829  
         C35       1.0000    0.47004   0.20406   0.97142   Biso      1.000     C          -0.156847           
         C36       1.0000    0.55461   0.26083   0.96028   Biso      1.000     C          0.045752  
         C37       1.0000    0.90254   0.28377   0.97222   Biso      1.000     C          0.079829  
         C38       1.0000    0.56240   0.32859   0.00637   Biso      1.000     C          -0.16411  
         C39       1.0000    0.49290   0.33504   0.06213   Biso      1.000     C          0.090783  
         C40       1.0000    0.86229   0.75298   0.40428   Biso      1.000     C          0.549274  
         C41       1.0000    0.93894   0.07884   0.77416   Biso      1.000     C          0.557248  
         C42       1.0000    0.97439   0.92024   0.78646   Biso      1.000     C          -0.161496           
         C43       1.0000    0.97004   0.29594   0.02858   Biso      1.000     C          -0.156847           
         C44       1.0000    0.00710   0.66496   0.56213   Biso      1.000     C          0.090778  
         C45       1.0000    0.86229   0.74702   0.90428   Biso      1.000     C          0.549275  
         C46       1.0000    0.93760   0.67141   0.50637   Biso      1.000     C          -0.164113           
         C47       1.0000    0.91615   0.00170   0.29337   Biso      1.000     C          -0.142748           
         C48       1.0000    0.86345   0.07843   0.30933   Biso      1.000     C          0.085443  
         C49       1.0000    0.94539   0.73917   0.46028   Biso      1.000     C          0.045759  
         C50       1.0000    0.96888   0.15345   0.23236   Biso      1.000     C          0.077573  
         C51       1.0000    0.99290   0.16496   0.93787   Biso      1.000     C          0.090778  
         C52       1.0000    0.02561   0.07976   0.21354   Biso      1.000     C          -0.161494           
         C53       1.0000    0.00092   0.99774   0.75491   Biso      1.000     C          0.033363  
         C54       1.0000    0.56240   0.17141   0.50637   Biso      1.000     C          -0.16411  
         C55       1.0000    0.91615   0.49830   0.79337   Biso      1.000     C          -0.142748           
         C56       1.0000    0.99290   0.33504   0.43787   Biso      1.000     C          0.090777  
         C57       1.0000    0.05461   0.26083   0.53972   Biso      1.000     C          0.045749  
         C58       1.0000    0.52996   0.70406   0.52858   Biso      1.000     C          -0.156855           
         C59       1.0000    0.06240   0.32859   0.49363   Biso      1.000     C          -0.164104           
         C60       1.0000    0.49290   0.16496   0.56213   Biso      1.000     C          0.090783  
         C61       1.0000    0.59746   0.71623   0.47222   Biso      1.000     C          0.079837  
         C62       1.0000    0.56106   0.92116   0.27416   Biso      1.000     C          0.557248  
         C63       1.0000    0.49908   0.00226   0.25491   Biso      1.000     C          0.033362  
         C64       1.0000    0.52561   0.07976   0.28646   Biso      1.000     C          -0.161496           
         C65       1.0000    0.36229   0.75298   0.09572   Biso      1.000     C          0.549275  
         C66       1.0000    0.46888   0.15345   0.26764   Biso      1.000     C          0.077575  
         C67       1.0000    0.41615   0.49830   0.70663   Biso      1.000     C          -0.142749           
         C68       1.0000    0.36345   0.42157   0.69067   Biso      1.000     C          0.085443  
         C69       1.0000    0.36345   0.07843   0.19067   Biso      1.000     C          0.085443  
         C70       1.0000    0.46888   0.34655   0.76764   Biso      1.000     C          0.077573  
         C71       1.0000    0.52561   0.42024   0.78646   Biso      1.000     C          -0.161496           
         C72       1.0000    0.49908   0.49774   0.75491   Biso      1.000     C          0.033364  
         C73       1.0000    0.56106   0.57884   0.77416   Biso      1.000     C          0.557248  
         C74       1.0000    0.41615   0.00170   0.20663   Biso      1.000     C          -0.142748           
         C75       1.0000    0.59746   0.78377   0.97222   Biso      1.000     C          0.079829  
         C76       1.0000    0.52996   0.79594   0.02858   Biso      1.000     C          -0.156847           
         C77       1.0000    0.44539   0.73917   0.03972   Biso      1.000     C          0.045752  
         C78       1.0000    0.36229   0.74702   0.59572   Biso      1.000     C          0.549275  
         C79       1.0000    0.43760   0.67141   0.99363   Biso      1.000     C          -0.164104           
         C80       1.0000    0.97004   0.20406   0.52858   Biso      1.000     C          -0.156851           
         C81       1.0000    0.44539   0.76083   0.53972   Biso      1.000     C          0.045753  
         C82       1.0000    0.58385   0.50170   0.29337   Biso      1.000     C          -0.142748           
         C83       1.0000    0.13771   0.24702   0.59572   Biso      1.000     C          0.549275  
         C84       1.0000    0.06240   0.17141   0.99363   Biso      1.000     C          -0.164113           
         C85       1.0000    0.93894   0.42116   0.27416   Biso      1.000     C          0.557248  
         C86       1.0000    0.00092   0.50226   0.25491   Biso      1.000     C          0.033362  
         C87       1.0000    0.97439   0.57976   0.28646   Biso      1.000     C          -0.161496           
         C88       1.0000    0.08385   0.50170   0.20663   Biso      1.000     C          -0.142748           
         C89       1.0000    0.08385   0.99830   0.70663   Biso      1.000     C          -0.142748           
         C90       1.0000    0.05461   0.23917   0.03972   Biso      1.000     C          0.04576   
         C91       1.0000    0.90254   0.21623   0.47222   Biso      1.000     C          0.079836  
         C92       1.0000    0.13771   0.25298   0.09572   Biso      1.000     C          0.549274  
         C93       1.0000    0.43760   0.82859   0.49363   Biso      1.000     C          -0.16411  
         C94       1.0000    0.03112   0.65345   0.26764   Biso      1.000     C          0.077575  
         C95       1.0000    0.50710   0.83504   0.43787   Biso      1.000     C          0.090783  
         C96       1.0000    0.13655   0.57843   0.19067   Biso      1.000     C          0.085443  
         Cd1       1.0000    0.18820   0.78399   0.18201   Biso      1.000     Cd          0.82627   
         Cd2       1.0000    0.18820   0.71601   0.68201   Biso      1.000     Cd          0.82627   
         Cd3       1.0000    0.68820   0.71601   0.81799   Biso      1.000     Cd          0.82627   
         Cd4       1.0000    0.81180   0.28399   0.31799   Biso      1.000     Cd          0.82627   
         Cd5       1.0000    0.81180   0.21601   0.81799   Biso      1.000     Cd          0.82627   
         Cd6       1.0000    0.31180   0.21601   0.68201   Biso      1.000     Cd          0.82627   
         Cd7       1.0000    0.68820   0.78399   0.31799   Biso      1.000     Cd          0.82627   
         Cd8       1.0000    0.31180   0.28399   0.18201   Biso      1.000     Cd          0.82627   
         H1        1.0000    0.84540   0.32230   0.96630   Biso      1.000     H          0.090095  
         H2        1.0000    0.89540   0.54940   0.81520   Biso      1.000     H          0.140653  
         H3        1.0000    0.11540   0.12950   0.00040   Biso      1.000     H          0.131192  
         H4        1.0000    0.60460   0.45060   0.31520   Biso      1.000     H          0.140653  
         H5        1.0000    0.39540   0.95060   0.18480   Biso      1.000     H          0.140653  
         H6        1.0000    0.15460   0.82230   0.53370   Biso      1.000     H          0.090095  
         H7        1.0000    0.30720   0.07720   0.15790   Biso      1.000     H          0.104103  
         H8        1.0000    0.00190   0.11900   0.90690   Biso      1.000     H          0.090147  
         H9        1.0000    0.80720   0.42280   0.84210   Biso      1.000     H          0.104103  
         H10       1.0000    0.99810   0.61900   0.59310   Biso      1.000     H          0.090147  
         H11       1.0000    0.98730   0.29490   0.71060   Biso      1.000     H          0.096138  
         H12       1.0000    0.88460   0.62950   0.49960   Biso      1.000     H          0.131192  
         H13       1.0000    0.58080   0.08250   0.31990   Biso      1.000     H          0.131376  
         H14       1.0000    0.49810   0.88100   0.40690   Biso      1.000     H          0.090147  
         H15       1.0000    0.65460   0.67770   0.46630   Biso      1.000     H          0.090095  
         H16       1.0000    0.08080   0.41750   0.68010   Biso      1.000     H          0.131376  
         H17       1.0000    0.54090   0.65800   0.55910   Biso      1.000     H          0.136823  
         H18       1.0000    0.04090   0.84200   0.44090   Biso      1.000     H          0.136822  
         H19       1.0000    0.38460   0.87050   0.50040   Biso      1.000     H          0.131191  
         H20       1.0000    0.95910   0.34200   0.05910   Biso      1.000     H          0.136822  
         H21       1.0000    0.48730   0.20510   0.28940   Biso      1.000     H          0.096138  
         H22       1.0000    0.08080   0.08250   0.18010   Biso      1.000     H          0.131376  
         H23       1.0000    0.51270   0.70510   0.21060   Biso      1.000     H          0.096138  
         H24       1.0000    0.41920   0.91750   0.68010   Biso      1.000     H          0.131376  
         H25       1.0000    0.34540   0.32230   0.53370   Biso      1.000     H          0.090095  
         H26       1.0000    0.45910   0.34200   0.44090   Biso      1.000     H          0.136822  
         H27       1.0000    0.61540   0.12950   0.49960   Biso      1.000     H          0.131191  
         H28       1.0000    0.50190   0.11900   0.59310   Biso      1.000     H          0.090147  
         H29       1.0000    0.69280   0.57720   0.34210   Biso      1.000     H          0.104103  
         H30       1.0000    0.58080   0.41750   0.81990   Biso      1.000     H          0.131376  
         H31       1.0000    0.10460   0.04940   0.68480   Biso      1.000     H          0.140653  
         H32       1.0000    0.48730   0.29490   0.78940   Biso      1.000     H          0.096138  
         H33       1.0000    0.30720   0.42280   0.65790   Biso      1.000     H          0.104103  
         H34       1.0000    0.10460   0.45060   0.18480   Biso      1.000     H          0.140653  
         H35       1.0000    0.19280   0.57720   0.15790   Biso      1.000     H          0.104103  
         H36       1.0000    0.01270   0.70510   0.28940   Biso      1.000     H          0.096138  
         H37       1.0000    0.91920   0.58250   0.31990   Biso      1.000     H          0.131376  
         H38       1.0000    0.84540   0.17770   0.46630   Biso      1.000     H          0.090095  
         H39       1.0000    0.95910   0.15800   0.55910   Biso      1.000     H          0.136822  
         H40       1.0000    0.11540   0.37050   0.50040   Biso      1.000     H          0.131191  
         H41       1.0000    0.00190   0.38100   0.40690   Biso      1.000     H          0.090147  
         H42       1.0000    0.39540   0.54940   0.68480   Biso      1.000     H          0.140653  
         H43       1.0000    0.51270   0.79490   0.71060   Biso      1.000     H          0.096138  
         H44       1.0000    0.69280   0.92280   0.84210   Biso      1.000     H          0.104103  
         H45       1.0000    0.60460   0.04940   0.81520   Biso      1.000     H          0.140653  
         H46       1.0000    0.65460   0.82230   0.96630   Biso      1.000     H          0.090095  
         H47       1.0000    0.41920   0.58250   0.18010   Biso      1.000     H          0.131376  
         H48       1.0000    0.34540   0.17770   0.03370   Biso      1.000     H          0.090095  
         H49       1.0000    0.45910   0.15800   0.94090   Biso      1.000     H          0.136822  
         H50       1.0000    0.61540   0.37050   0.99960   Biso      1.000     H          0.131191  
         H51       1.0000    0.50190   0.38100   0.09310   Biso      1.000     H          0.090147  
         H52       1.0000    0.91920   0.91750   0.81990   Biso      1.000     H          0.131376  
         H53       1.0000    0.49810   0.61900   0.90690   Biso      1.000     H          0.090147  
         H54       1.0000    0.89540   0.95060   0.31520   Biso      1.000     H          0.140653  
         H55       1.0000    0.38460   0.62950   0.00040   Biso      1.000     H          0.131191  
         H56       1.0000    0.98730   0.20510   0.21060   Biso      1.000     H          0.096138  
         H57       1.0000    0.15460   0.67770   0.03370   Biso      1.000     H          0.090095  
         H58       1.0000    0.04090   0.65800   0.94090   Biso      1.000     H          0.136823  
         H59       1.0000    0.88460   0.87050   0.99960   Biso      1.000     H          0.131191  
         H60       1.0000    0.99810   0.88100   0.09310   Biso      1.000     H          0.090147  
         H61       1.0000    0.01270   0.79490   0.78940   Biso      1.000     H          0.096138  
         H62       1.0000    0.19280   0.92280   0.65790   Biso      1.000     H          0.104103  
         H63       1.0000    0.54090   0.84200   0.05910   Biso      1.000     H          0.136822  
         H64       1.0000    0.80720   0.07720   0.34210   Biso      1.000     H          0.104103  
         N1        1.0000    0.58699   0.72046   0.92525   Biso      1.000     N          -0.220225           
         N2        1.0000    0.58699   0.77954   0.42525   Biso      1.000     N          -0.220227           
         N3        1.0000    0.38980   0.15408   0.22019   Biso      1.000     N          -0.230953           
         N4        1.0000    0.38980   0.34592   0.72019   Biso      1.000     N          -0.230953           
         N5        1.0000    0.08699   0.72046   0.57475   Biso      1.000     N          -0.220225           
         N6        1.0000    0.11020   0.84592   0.72019   Biso      1.000     N          -0.230953           
         N7        1.0000    0.91301   0.22046   0.92525   Biso      1.000     N          -0.220225           
         N8        1.0000    0.91301   0.27954   0.42525   Biso      1.000     N          -0.220226           
         N9        1.0000    0.11020   0.65408   0.22019   Biso      1.000     N          -0.230953           
         N10       1.0000    0.88980   0.34592   0.77981   Biso      1.000     N          -0.230953           
         N11       1.0000    0.41301   0.22046   0.57475   Biso      1.000     N          -0.220226           
         N12       1.0000    0.61020   0.84592   0.77981   Biso      1.000     N          -0.230953           
         N13       1.0000    0.08699   0.77954   0.07475   Biso      1.000     N          -0.220227           
         N14       1.0000    0.88980   0.15408   0.27981   Biso      1.000     N          -0.230953           
         N15       1.0000    0.61020   0.65408   0.27981   Biso      1.000     N          -0.230953           
         N16       1.0000    0.41301   0.27954   0.07475   Biso      1.000     N          -0.220226           
         O1        1.0000    0.85175   0.07056   0.80599   Biso      1.000     O          -0.530771           
         O2        1.0000    0.97924   0.14998   0.75884   Biso      1.000     O          -0.572732           
         O3        1.0000    0.30927   0.81085   0.61708   Biso      1.000     O          -0.556993           
         O4        1.0000    0.80927   0.81085   0.88292   Biso      1.000     O          -0.556993           
         O5        1.0000    0.52076   0.85002   0.25884   Biso      1.000     O          -0.572732           
         O6        1.0000    0.64825   0.57056   0.80599   Biso      1.000     O          -0.530771           
         O7        1.0000    0.52076   0.64998   0.75884   Biso      1.000     O          -0.572732           
         O8        1.0000    0.34507   0.82863   0.11646   Biso      1.000     O          -0.529187           
         O9        1.0000    0.30927   0.68915   0.11708   Biso      1.000     O          -0.556993           
         O10       1.0000    0.85175   0.42944   0.30599   Biso      1.000     O          -0.530771           
         O11       1.0000    0.97924   0.35002   0.25884   Biso      1.000     O          -0.572732           
         O12       1.0000    0.15493   0.17137   0.61646   Biso      1.000     O          -0.529187           
         O13       1.0000    0.19073   0.31085   0.61708   Biso      1.000     O          -0.556993           
         O14       1.0000    0.35175   0.07056   0.69401   Biso      1.000     O          -0.530771           
         O15       1.0000    0.47924   0.14998   0.74116   Biso      1.000     O          -0.572732           
         O16       1.0000    0.65493   0.32863   0.38354   Biso      1.000     O          -0.529187           
         O17       1.0000    0.69073   0.18915   0.38292   Biso      1.000     O          -0.556993           
         O18       1.0000    0.14825   0.92944   0.19401   Biso      1.000     O          -0.530771           
         O19       1.0000    0.02076   0.85002   0.24116   Biso      1.000     O          -0.572732           
         O20       1.0000    0.84507   0.67137   0.88354   Biso      1.000     O          -0.529187           
         O21       1.0000    0.15493   0.32863   0.11646   Biso      1.000     O          -0.529187           
         O22       1.0000    0.35175   0.42944   0.19401   Biso      1.000     O          -0.530771           
         O23       1.0000    0.47924   0.35002   0.24116   Biso      1.000     O          -0.572732           
         O24       1.0000    0.65493   0.17137   0.88354   Biso      1.000     O          -0.529187           
         O25       1.0000    0.69073   0.31085   0.88292   Biso      1.000     O          -0.556993           
         O26       1.0000    0.14825   0.57056   0.69401   Biso      1.000     O          -0.530771           
         O27       1.0000    0.02076   0.64998   0.74116   Biso      1.000     O          -0.572732           
         O28       1.0000    0.84507   0.82863   0.38354   Biso      1.000     O          -0.529187           
         O29       1.0000    0.80927   0.68915   0.38292   Biso      1.000     O          -0.556993           
         O30       1.0000    0.64825   0.92944   0.30599   Biso      1.000     O          -0.530771           
         O31       1.0000    0.34507   0.67137   0.61646   Biso      1.000     O          -0.529187           
         O32       1.0000    0.19073   0.18915   0.11708   Biso      1.000     O          -0.556993 