
##########################################################################
#               Crystallographic Information Format file
#               Produced by PyCifRW module
#
#  This is a CIF file.  CIF has been adopted by the International
#  Union of Crystallography as the standard for data archiving and
#  transmission.
#
#  For information on this file format, follow the CIF links at
#  http://www.iucr.org
##########################################################################

data_image0

_cell_length_a                          13.209
_cell_length_b                          13.926
_cell_length_c                          12.243
_cell_angle_alpha                       90
_cell_angle_beta                        90
_cell_angle_gamma                       90
_symmetry_space_group_name_H-M          'P 1'
_symmetry_int_tables_number             1
loop_
  _symmetry_equiv_pos_as_xyz
         'x, y, z' 
loop_
  _atom_site_label
  _atom_site_occupancy
  _atom_site_fract_x
  _atom_site_fract_y
  _atom_site_fract_z
  _atom_site_thermal_displace_type
  _atom_site_B_iso_or_equiv
  _atom_site_type_symbol
  _atom_site_charge
         C1        1.0000    0.40060   0.07340   0.15730   Biso      1.000     C          0.618957  
         C2        1.0000    0.97690   0.37530   0.59000   Biso      1.000     C          -0.204141           
         C3        1.0000    0.68210   0.19590   0.60680   Biso      1.000     C          0.091357  
         C4        1.0000    0.99030   0.28220   0.59780   Biso      1.000     C          -0.110113           
         C5        1.0000    0.62370   0.25860   0.54710   Biso      1.000     C          -0.173831           
         C6        1.0000    0.05920   0.22300   0.53260   Biso      1.000     C          0.172919  
         C7        1.0000    0.12370   0.25860   0.45290   Biso      1.000     C          -0.173831           
         C8        1.0000    0.55920   0.22300   0.46740   Biso      1.000     C          0.172924  
         C9        1.0000    0.18210   0.19590   0.39320   Biso      1.000     C          0.091358  
         C10       1.0000    0.49030   0.28220   0.40220   Biso      1.000     C          -0.110174           
         C11       1.0000    0.12250   0.06680   0.48770   Biso      1.000     C          0.063933  
         C12       1.0000    0.47690   0.37530   0.41000   Biso      1.000     C          -0.204082           
         C13       1.0000    0.06230   0.12450   0.55110   Biso      1.000     C          -0.194993           
         C14       1.0000    0.40060   0.42660   0.34270   Biso      1.000     C          0.618951  
         C15       1.0000    0.93770   0.87550   0.44890   Biso      1.000     C          -0.194995           
         C16       1.0000    0.87750   0.93320   0.51230   Biso      1.000     C          0.063936  
         C17       1.0000    0.81790   0.80410   0.60680   Biso      1.000     C          0.091357  
         C18       1.0000    0.59940   0.57340   0.65730   Biso      1.000     C          0.618957  
         C19       1.0000    0.52310   0.62470   0.59000   Biso      1.000     C          -0.204141           
         C20       1.0000    0.87630   0.74140   0.54710   Biso      1.000     C          -0.173831           
         C21       1.0000    0.50970   0.71780   0.59780   Biso      1.000     C          -0.110114           
         C22       1.0000    0.94080   0.77700   0.46740   Biso      1.000     C          0.172924  
         C23       1.0000    0.44080   0.77700   0.53260   Biso      1.000     C          0.172919  
         C24       1.0000    0.37630   0.74140   0.45290   Biso      1.000     C          -0.173831           
         C25       1.0000    0.00970   0.71780   0.40220   Biso      1.000     C          -0.110174           
         C26       1.0000    0.31790   0.80410   0.39320   Biso      1.000     C          0.091358  
         C27       1.0000    0.02310   0.62470   0.41000   Biso      1.000     C          -0.204082           
         C28       1.0000    0.37750   0.93320   0.48770   Biso      1.000     C          0.063933  
         C29       1.0000    0.09940   0.57340   0.34270   Biso      1.000     C          0.618951  
         C30       1.0000    0.43770   0.87550   0.55110   Biso      1.000     C          -0.194993           
         C31       1.0000    0.90060   0.42660   0.65730   Biso      1.000     C          0.618957  
         C32       1.0000    0.62250   0.06680   0.51230   Biso      1.000     C          0.063933  
         C33       1.0000    0.56230   0.12450   0.44890   Biso      1.000     C          -0.194993           
         C34       1.0000    0.59940   0.92660   0.84270   Biso      1.000     C          0.618951  
         C35       1.0000    0.47690   0.12470   0.09000   Biso      1.000     C          -0.204141           
         C36       1.0000    0.06230   0.37550   0.94890   Biso      1.000     C          -0.194995           
         C37       1.0000    0.49030   0.21780   0.09780   Biso      1.000     C          -0.110114           
         C38       1.0000    0.12250   0.43320   0.01230   Biso      1.000     C          0.063936  
         C39       1.0000    0.55920   0.27700   0.03260   Biso      1.000     C          0.172919  
         C40       1.0000    0.62370   0.24140   0.95290   Biso      1.000     C          -0.173831           
         C41       1.0000    0.18210   0.30410   0.10680   Biso      1.000     C          0.091357  
         C42       1.0000    0.68210   0.30410   0.89320   Biso      1.000     C          0.091358  
         C43       1.0000    0.12370   0.24140   0.04710   Biso      1.000     C          -0.173831           
         C44       1.0000    0.62250   0.43320   0.98770   Biso      1.000     C          0.063933  
         C45       1.0000    0.05920   0.27700   0.96740   Biso      1.000     C          0.172924  
         C46       1.0000    0.56230   0.37550   0.05110   Biso      1.000     C          -0.194993           
         C47       1.0000    0.99030   0.21780   0.90220   Biso      1.000     C          -0.110174           
         C48       1.0000    0.97690   0.12470   0.91000   Biso      1.000     C          -0.204082           
         C49       1.0000    0.90060   0.07340   0.84270   Biso      1.000     C          0.618951  
         C50       1.0000    0.37630   0.75860   0.04710   Biso      1.000     C          -0.173832           
         C51       1.0000    0.09940   0.92660   0.15730   Biso      1.000     C          0.618957  
         C52       1.0000    0.02310   0.87530   0.09000   Biso      1.000     C          -0.204141           
         C53       1.0000    0.37750   0.56680   0.01230   Biso      1.000     C          0.063933  
         C54       1.0000    0.00970   0.78220   0.09780   Biso      1.000     C          -0.110114           
         C55       1.0000    0.31790   0.69590   0.10680   Biso      1.000     C          0.091358  
         C56       1.0000    0.94080   0.72300   0.03260   Biso      1.000     C          0.172919  
         C57       1.0000    0.87630   0.75860   0.95290   Biso      1.000     C          -0.173831           
         C58       1.0000    0.43770   0.62450   0.94890   Biso      1.000     C          -0.194992           
         C59       1.0000    0.81790   0.69590   0.89320   Biso      1.000     C          0.091358  
         C60       1.0000    0.44080   0.72300   0.96740   Biso      1.000     C          0.172924  
         C61       1.0000    0.87750   0.56680   0.98770   Biso      1.000     C          0.063933  
         C62       1.0000    0.50970   0.78220   0.90220   Biso      1.000     C          -0.110174           
         C63       1.0000    0.93770   0.62450   0.05110   Biso      1.000     C          -0.194993           
         C64       1.0000    0.52310   0.87530   0.91000   Biso      1.000     C          -0.204081           
         Cd1       1.0000    0.25000   0.50000   0.22082   Biso      1.000     Cd          0.794903  
         Cd2       1.0000    0.25000   0.00000   0.27918   Biso      1.000     Cd          0.794902  
         Cd3       1.0000    0.75000   0.50000   0.77918   Biso      1.000     Cd          0.794902  
         Cd4       1.0000    0.75000   0.00000   0.72082   Biso      1.000     Cd          0.794903  
         H1        1.0000    0.52340   0.40230   0.10660   Biso      1.000     H          0.131004  
         H2        1.0000    0.51630   0.08990   0.04100   Biso      1.000     H          0.1357    
         H3        1.0000    0.62350   0.00120   0.49820   Biso      1.000     H          0.089214  
         H4        1.0000    0.12350   0.49880   0.99820   Biso      1.000     H          0.089214  
         H5        1.0000    0.52340   0.09770   0.39340   Biso      1.000     H          0.131004  
         H6        1.0000    0.45200   0.24950   0.15030   Biso      1.000     H          0.116265  
         H7        1.0000    0.22550   0.27880   0.15930   Biso      1.000     H          0.098141  
         H8        1.0000    0.97660   0.59770   0.10660   Biso      1.000     H          0.131004  
         H9        1.0000    0.48370   0.91010   0.95900   Biso      1.000     H          0.135697  
         H10       1.0000    0.87650   0.50120   0.00180   Biso      1.000     H          0.089214  
         H11       1.0000    0.54800   0.75050   0.84970   Biso      1.000     H          0.116269  
         H12       1.0000    0.01630   0.41010   0.54100   Biso      1.000     H          0.1357    
         H13       1.0000    0.77450   0.72120   0.84070   Biso      1.000     H          0.098141  
         H14       1.0000    0.37260   0.82430   0.06010   Biso      1.000     H          0.144352  
         H15       1.0000    0.04800   0.75050   0.15030   Biso      1.000     H          0.116265  
         H16       1.0000    0.27450   0.72120   0.15930   Biso      1.000     H          0.098141  
         H17       1.0000    0.98370   0.91010   0.04100   Biso      1.000     H          0.1357    
         H18       1.0000    0.37650   0.50120   0.99820   Biso      1.000     H          0.089214  
         H19       1.0000    0.62740   0.17570   0.93990   Biso      1.000     H          0.144352  
         H20       1.0000    0.47660   0.59770   0.89340   Biso      1.000     H          0.131004  
         H21       1.0000    0.12740   0.17570   0.06010   Biso      1.000     H          0.144352  
         H22       1.0000    0.72550   0.27880   0.84070   Biso      1.000     H          0.098141  
         H23       1.0000    0.62350   0.49880   0.00180   Biso      1.000     H          0.089214  
         H24       1.0000    0.01630   0.08990   0.95900   Biso      1.000     H          0.135697  
         H25       1.0000    0.87260   0.82430   0.93990   Biso      1.000     H          0.144352  
         H26       1.0000    0.62740   0.32430   0.56010   Biso      1.000     H          0.144352  
         H27       1.0000    0.72550   0.22120   0.65930   Biso      1.000     H          0.098141  
         H28       1.0000    0.12740   0.32430   0.43990   Biso      1.000     H          0.144352  
         H29       1.0000    0.47660   0.90230   0.60660   Biso      1.000     H          0.131004  
         H30       1.0000    0.37650   0.99880   0.50180   Biso      1.000     H          0.089214  
         H31       1.0000    0.27450   0.77880   0.34070   Biso      1.000     H          0.098141  
         H32       1.0000    0.98370   0.58990   0.45900   Biso      1.000     H          0.135697  
         H33       1.0000    0.37260   0.67570   0.43990   Biso      1.000     H          0.144352  
         H34       1.0000    0.04800   0.74950   0.34970   Biso      1.000     H          0.116269  
         H35       1.0000    0.54800   0.74950   0.65030   Biso      1.000     H          0.116265  
         H36       1.0000    0.48370   0.58990   0.54100   Biso      1.000     H          0.1357    
         H37       1.0000    0.87260   0.67570   0.56010   Biso      1.000     H          0.144352  
         H38       1.0000    0.95200   0.25050   0.65030   Biso      1.000     H          0.116265  
         H39       1.0000    0.87650   0.99880   0.49820   Biso      1.000     H          0.089214  
         H40       1.0000    0.77450   0.77880   0.65930   Biso      1.000     H          0.098141  
         H41       1.0000    0.97660   0.90230   0.39340   Biso      1.000     H          0.131005  
         H42       1.0000    0.45200   0.25050   0.34970   Biso      1.000     H          0.116269  
         H43       1.0000    0.22550   0.22120   0.34070   Biso      1.000     H          0.098141  
         H44       1.0000    0.51630   0.41010   0.45900   Biso      1.000     H          0.135697  
         H45       1.0000    0.12350   0.00120   0.50180   Biso      1.000     H          0.089214  
         H46       1.0000    0.02340   0.40230   0.89340   Biso      1.000     H          0.131005  
         H47       1.0000    0.02340   0.09770   0.60660   Biso      1.000     H          0.131004  
         H48       1.0000    0.95200   0.24950   0.84970   Biso      1.000     H          0.116269  
         N1        1.0000    0.68000   0.10082   0.59340   Biso      1.000     N          -0.235419           
         N2        1.0000    0.18000   0.10082   0.40660   Biso      1.000     N          -0.235419           
         N3        1.0000    0.82000   0.60082   0.90660   Biso      1.000     N          -0.235419           
         N4        1.0000    0.32000   0.60082   0.09340   Biso      1.000     N          -0.235419           
         N5        1.0000    0.82000   0.89918   0.59340   Biso      1.000     N          -0.23542  
         N6        1.0000    0.68000   0.39918   0.90660   Biso      1.000     N          -0.235419           
         N7        1.0000    0.32000   0.89918   0.40660   Biso      1.000     N          -0.235419           
         N8        1.0000    0.18000   0.39918   0.09340   Biso      1.000     N          -0.23542  
         O1        1.0000    0.88210   0.98755   0.86090   Biso      1.000     O          -0.570171           
         O2        1.0000    0.85460   0.11981   0.77000   Biso      1.000     O          -0.570625           
         O3        1.0000    0.61790   0.48755   0.63910   Biso      1.000     O          -0.570171           
         O4        1.0000    0.61790   0.01245   0.86090   Biso      1.000     O          -0.570171           
         O5        1.0000    0.64540   0.88019   0.77000   Biso      1.000     O          -0.570625           
         O6        1.0000    0.38210   0.98755   0.13910   Biso      1.000     O          -0.570171           
         O7        1.0000    0.64540   0.61981   0.73000   Biso      1.000     O          -0.570625           
         O8        1.0000    0.35460   0.38019   0.27000   Biso      1.000     O          -0.570625           
         O9        1.0000    0.14540   0.88019   0.23000   Biso      1.000     O          -0.570625           
         O10       1.0000    0.11790   0.01245   0.13910   Biso      1.000     O          -0.570171           
         O11       1.0000    0.11790   0.48755   0.36090   Biso      1.000     O          -0.570171           
         O12       1.0000    0.14540   0.61981   0.27000   Biso      1.000     O          -0.570625           
         O13       1.0000    0.85460   0.38019   0.73000   Biso      1.000     O          -0.570625           
         O14       1.0000    0.88210   0.51245   0.63910   Biso      1.000     O          -0.570171           
         O15       1.0000    0.35460   0.11981   0.23000   Biso      1.000     O          -0.570625           
         O16       1.0000    0.38210   0.51245   0.36090   Biso      1.000     O          -0.570171 