
##########################################################################
#               Crystallographic Information Format file
#               Produced by PyCifRW module
#
#  This is a CIF file.  CIF has been adopted by the International
#  Union of Crystallography as the standard for data archiving and
#  transmission.
#
#  For information on this file format, follow the CIF links at
#  http://www.iucr.org
##########################################################################

data_image0

_cell_length_a                          14.3049
_cell_length_b                          10.1537
_cell_length_c                          18.3128
_cell_angle_alpha                       90
_cell_angle_beta                        90.107
_cell_angle_gamma                       90
_symmetry_space_group_name_H-M          'P 1'
_symmetry_int_tables_number             1
loop_
  _symmetry_equiv_pos_as_xyz
         'x, y, z' 
loop_
  _atom_site_label
  _atom_site_occupancy
  _atom_site_fract_x
  _atom_site_fract_y
  _atom_site_fract_z
  _atom_site_thermal_displace_type
  _atom_site_B_iso_or_equiv
  _atom_site_type_symbol
  _atom_site_charge
         O1        1.0000    0.32750   0.24860   0.62854   Biso      1.000     O          -0.716277           
         O2        1.0000    0.57020   0.51260   0.70520   Biso      1.000     O          -0.555558           
         O3        1.0000    0.80300   0.28760   0.99612   Biso      1.000     O          -0.834309           
         O4        1.0000    0.59810   0.05600   0.57087   Biso      1.000     O          -0.8134170000000001           
         O5        1.0000    0.70650   0.21600   0.62597   Biso      1.000     O          -0.727775           
         O6        1.0000    0.77460   0.82320   0.25658   Biso      1.000     O          -0.80178  
         O7        1.0000    0.67250   0.75140   0.37146   Biso      1.000     O          -0.7162390000000001           
         O8        1.0000    0.23200   0.05390   0.58576   Biso      1.000     O          -0.792984           
         O9        1.0000    0.55560   0.32570   0.27540   Biso      1.000     O          -0.635142           
         O10       1.0000    0.15910   0.98840   0.81566   Biso      1.000     O          -0.713279           
         O11       1.0000    0.21620   0.61890   0.20479   Biso      1.000     O          -0.83381  
         O12       1.0000    0.23200   0.00050   0.41839   Biso      1.000     O          -0.791367           
         O13       1.0000    0.22770   0.04020   0.15888   Biso      1.000     O          -0.766837           
         O14       1.0000    0.21830   0.42570   0.79383   Biso      1.000     O          -0.818489           
         O15       1.0000    0.92980   0.01260   0.79480   Biso      1.000     O          -0.555238           
         O16       1.0000    0.22540   0.17680   0.74342   Biso      1.000     O          -0.801304           
         O17       1.0000    0.29350   0.78400   0.37403   Biso      1.000     O          -0.728751           
         O18       1.0000    0.15340   0.82540   0.12716   Biso      1.000     O          -0.70906  
         O19       1.0000    0.71270   0.62860   0.75448   Biso      1.000     O          -0.775516           
         O20       1.0000    0.90390   0.44130   0.07149   Biso      1.000     O          -0.826268           
         O21       1.0000    0.78200   0.67400   0.00646   Biso      1.000     O          -0.8198549999999999           
         O22       1.0000    0.69700   0.78760   0.50388   Biso      1.000     O          -0.834181           
         O23       1.0000    0.78730   0.12860   0.74552   Biso      1.000     O          -0.775759           
         O24       1.0000    0.59610   0.94130   0.42851   Biso      1.000     O          -0.826422           
         O25       1.0000    0.71800   0.17400   0.49354   Biso      1.000     O          -0.819565           
         O26       1.0000    0.82590   0.79120   0.12652   Biso      1.000     O          -0.7430770000000001           
         O27       1.0000    0.73200   0.44610   0.08576   Biso      1.000     O          -0.793445           
         O28       1.0000    0.65910   0.51160   0.31566   Biso      1.000     O          -0.715061           
         O29       1.0000    0.65340   0.67460   0.62716   Biso      1.000     O          -0.7082930000000001           
         O30       1.0000    0.71620   0.88110   0.70479   Biso      1.000     O          -0.833161           
         O31       1.0000    0.73200   0.49950   0.91839   Biso      1.000     O          -0.787504           
         O32       1.0000    0.72770   0.45980   0.65888   Biso      1.000     O          -0.765942           
         O33       1.0000    0.71830   0.07430   0.29383   Biso      1.000     O          -0.81845  
         O34       1.0000    0.82750   0.25140   0.12854   Biso      1.000     O          -0.716433           
         O35       1.0000    0.72540   0.32320   0.24342   Biso      1.000     O          -0.803404           
         O36       1.0000    0.79350   0.71600   0.87403   Biso      1.000     O          -0.727928           
         O37       1.0000    0.90190   0.55600   0.92913   Biso      1.000     O          -0.813675           
         O38       1.0000    0.67410   0.29120   0.37348   Biso      1.000     O          -0.7438859999999999           
         O39       1.0000    0.40190   0.94400   0.42913   Biso      1.000     O          -0.813715           
         O40       1.0000    0.17410   0.20880   0.87348   Biso      1.000     O          -0.7443960000000001           
         O41       1.0000    0.94440   0.82570   0.22460   Biso      1.000     O          -0.636317           
         O42       1.0000    0.40390   0.05870   0.57149   Biso      1.000     O          -0.8259479999999999           
         O43       1.0000    0.27230   0.54020   0.34112   Biso      1.000     O          -0.764748           
         O44       1.0000    0.28200   0.82600   0.50646   Biso      1.000     O          -0.820119           
         O45       1.0000    0.17250   0.74860   0.87146   Biso      1.000     O          -0.716481           
         O46       1.0000    0.27460   0.67680   0.75658   Biso      1.000     O          -0.801198           
         O47       1.0000    0.20650   0.28400   0.12597   Biso      1.000     O          -0.727854           
         O48       1.0000    0.09810   0.44400   0.07087   Biso      1.000     O          -0.8141079999999999           
         O49       1.0000    0.32590   0.70880   0.62652   Biso      1.000     O          -0.743841           
         O50       1.0000    0.26800   0.50050   0.08161   Biso      1.000     O          -0.7871199999999999           
         O51       1.0000    0.21800   0.32600   0.99354   Biso      1.000     O          -0.820098           
         O52       1.0000    0.28730   0.37140   0.24552   Biso      1.000     O          -0.778958           
         O53       1.0000    0.44440   0.67430   0.72460   Biso      1.000     O          -0.636035           
         O54       1.0000    0.42980   0.48740   0.29480   Biso      1.000     O          -0.54674  
         O55       1.0000    0.19700   0.71240   0.00388   Biso      1.000     O          -0.8348270000000001           
         O56       1.0000    0.84660   0.17460   0.87284   Biso      1.000     O          -0.708462           
         O57       1.0000    0.84090   0.01160   0.18434   Biso      1.000     O          -0.7154189999999999           
         O58       1.0000    0.76800   0.94610   0.41424   Biso      1.000     O          -0.7934359999999999           
         O59       1.0000    0.09610   0.55870   0.92851   Biso      1.000     O          -0.826044           
         O60       1.0000    0.28380   0.11890   0.29521   Biso      1.000     O          -0.8340629999999999           
         O61       1.0000    0.28170   0.92570   0.70617   Biso      1.000     O          -0.818401           
         O62       1.0000    0.77230   0.95980   0.84112   Biso      1.000     O          -0.765886           
         O63       1.0000    0.21270   0.87140   0.25448   Biso      1.000     O          -0.774849           
         O64       1.0000    0.30300   0.21240   0.49612   Biso      1.000     O          -0.8325459999999999           
         O65       1.0000    0.34660   0.32540   0.37284   Biso      1.000     O          -0.71165  
         O66       1.0000    0.34090   0.48840   0.68434   Biso      1.000     O          -0.713132           
         O67       1.0000    0.26800   0.55390   0.91424   Biso      1.000     O          -0.793568           
         O68       1.0000    0.78380   0.38110   0.79521   Biso      1.000     O          -0.8331540000000001           
         O69       1.0000    0.76800   0.99950   0.58161   Biso      1.000     O          -0.787745           
         O70       1.0000    0.07020   0.98740   0.20520   Biso      1.000     O          -0.5380119999999999           
         O71       1.0000    0.78170   0.57430   0.20617   Biso      1.000     O          -0.818852           
         O72       1.0000    0.05560   0.17430   0.77540   Biso      1.000     O          -0.6356069999999999           
         P1        1.0000    0.80167   0.61088   0.93315   Biso      1.000     P          1.674107  
         P2        1.0000    0.68414   0.85715   0.43046   Biso      1.000     P          1.647241  
         P3        1.0000    0.83320   0.07077   0.81365   Biso      1.000     P          1.530635  
         P4        1.0000    0.69833   0.11088   0.56685   Biso      1.000     P          1.674116  
         P5        1.0000    0.84595   0.86301   0.19779   Biso      1.000     P          1.5480690000000001  
         P6        1.0000    0.34595   0.63699   0.69779   Biso      1.000     P          1.547444  
         P7        1.0000    0.30167   0.88912   0.43315   Biso      1.000     P          1.6747869999999998  
         P8        1.0000    0.33320   0.42923   0.31365   Biso      1.000     P          1.531631  
         P9        1.0000    0.19833   0.38912   0.06685   Biso      1.000     P          1.67367   
         P10       1.0000    0.16680   0.92923   0.18635   Biso      1.000     P          1.528999  
         P11       1.0000    0.31586   0.14285   0.56954   Biso      1.000     P          1.6468779999999998  
         P12       1.0000    0.15405   0.13699   0.80221   Biso      1.000     P          1.5476530000000002  
         P13       1.0000    0.65405   0.36301   0.30221   Biso      1.000     P          1.549468  
         P14       1.0000    0.81586   0.35715   0.06954   Biso      1.000     P          1.647317  
         P15       1.0000    0.66680   0.57077   0.68635   Biso      1.000     P          1.530456  
         P16       1.0000    0.18414   0.64285   0.93046   Biso      1.000     P          1.6474520000000001  
         V1        1.0000    0.28821   0.20040   0.19680   Biso      1.000     V          1.619622  
         V2        1.0000    0.71179   0.79960   0.80320   Biso      1.000     V          1.6272520000000001  
         V3        1.0000    0.75322   0.65211   0.30339   Biso      1.000     V          1.584729  
         V4        1.0000    0.74235   0.81550   0.60383   Biso      1.000     V          1.600683  
         V5        1.0000    0.78821   0.29960   0.69680   Biso      1.000     V          1.6269069999999999  
         V6        1.0000    0.74674   0.63763   0.10754   Biso      1.000     V          1.6172959999999998  
         V7        1.0000    0.74678   0.15211   0.19661   Biso      1.000     V          1.585995  
         V8        1.0000    0.75765   0.31550   0.89617   Biso      1.000     V          1.600729  
         V9        1.0000    0.00000   0.50000   0.00000   Biso      1.000     V          1.6785130000000001  
         V10       1.0000    0.24674   0.86237   0.60754   Biso      1.000     V          1.619019  
         V11       1.0000    0.24678   0.34789   0.69661   Biso      1.000     V          1.5825    
         V12       1.0000    0.25765   0.18450   0.39617   Biso      1.000     V          1.599952  
         V13       1.0000    0.21179   0.70040   0.30320   Biso      1.000     V          1.627033  
         V14       1.0000    0.25326   0.36237   0.89246   Biso      1.000     V          1.618619  
         V15       1.0000    0.25322   0.84789   0.80339   Biso      1.000     V          1.583343  
         V16       1.0000    0.24235   0.68450   0.10383   Biso      1.000     V          1.602735  
         V17       1.0000    0.75326   0.13763   0.39246   Biso      1.000     V          1.619645  
         V18       1.0000    0.50000   0.00000   0.50000   Biso      1.000     V          1.678277 