
##########################################################################
#               Crystallographic Information Format file
#               Produced by PyCifRW module
#
#  This is a CIF file.  CIF has been adopted by the International
#  Union of Crystallography as the standard for data archiving and
#  transmission.
#
#  For information on this file format, follow the CIF links at
#  http://www.iucr.org
##########################################################################

data_image0

_cell_length_a                          11.174
_cell_length_b                          12.8365
_cell_length_c                          12.8365
_cell_angle_alpha                       117.852
_cell_angle_beta                        96.1197
_cell_angle_gamma                       83.8803
_symmetry_space_group_name_H-M          'P 1'
_symmetry_int_tables_number             1
loop_
  _symmetry_equiv_pos_as_xyz
         'x, y, z' 
loop_
  _atom_site_label
  _atom_site_occupancy
  _atom_site_fract_x
  _atom_site_fract_y
  _atom_site_fract_z
  _atom_site_thermal_displace_type
  _atom_site_B_iso_or_equiv
  _atom_site_type_symbol
  _atom_site_charge
         C1        1.0000    0.06000   0.24510   0.66670   Biso      1.000     C          -0.08458500000000001          
         C2        1.0000    0.98200   0.13000   0.46880   Biso      1.000     C          -0.183599           
         C3        1.0000    0.96490   0.21550   0.58230   Biso      1.000     C          -0.023998           
         C4        1.0000    0.17030   0.18410   0.63410   Biso      1.000     C          0.085398  
         C5        1.0000    0.04520   0.33940   0.79000   Biso      1.000     C          0.604043  
         C6        1.0000    0.58350   0.80700   0.86580   Biso      1.000     C          -0.197257           
         C7        1.0000    0.48580   0.93630   0.65990   Biso      1.000     C          0.606608  
         C8        1.0000    0.58360   0.84240   0.78060   Biso      1.000     C          -0.032224           
         C9        1.0000    0.48640   0.89850   0.75210   Biso      1.000     C          -0.080773           
         C10       1.0000    0.38820   0.92170   0.81810   Biso      1.000     C          0.064625  
         C11       1.0000    0.59530   0.55750   0.92730   Biso      1.000     C          0.197376  
         C12       1.0000    0.48200   0.53120   0.87000   Biso      1.000     C          -0.183599           
         C13       1.0000    0.46490   0.41770   0.78450   Biso      1.000     C          -0.024003           
         C14       1.0000    0.67030   0.36590   0.81590   Biso      1.000     C          0.085397  
         C15       1.0000    0.56000   0.33330   0.75490   Biso      1.000     C          -0.08457999999999999          
         C16       1.0000    0.54520   0.21000   0.66060   Biso      1.000     C          0.604043  
         C17       1.0000    0.09530   0.07270   0.44250   Biso      1.000     C          0.197376  
         C18       1.0000    0.91650   0.86580   0.80700   Biso      1.000     C          -0.197259           
         C19       1.0000    0.98800   0.07250   0.16470   Biso      1.000     C          0.21633200000000002           
         C20       1.0000    0.98640   0.24790   0.10150   Biso      1.000     C          -0.080789           
         C21       1.0000    0.41650   0.19300   0.13420   Biso      1.000     C          -0.197257           
         C22       1.0000    0.51420   0.06370   0.34010   Biso      1.000     C          0.606608  
         C23       1.0000    0.41640   0.15760   0.21940   Biso      1.000     C          -0.032224           
         C24       1.0000    0.51360   0.10150   0.24790   Biso      1.000     C          -0.080772           
         C25       1.0000    0.61180   0.07830   0.18190   Biso      1.000     C          0.064625  
         C26       1.0000    0.51200   0.16470   0.07250   Biso      1.000     C          0.216379  
         C27       1.0000    0.40470   0.44250   0.07270   Biso      1.000     C          0.197376  
         C28       1.0000    0.51800   0.46880   0.13000   Biso      1.000     C          -0.183599           
         C29       1.0000    0.53510   0.58230   0.21550   Biso      1.000     C          -0.024003           
         C30       1.0000    0.32970   0.63410   0.18410   Biso      1.000     C          0.085397  
         C31       1.0000    0.44000   0.66670   0.24510   Biso      1.000     C          -0.08458099999999999          
         C32       1.0000    0.45480   0.79000   0.33940   Biso      1.000     C          0.604043  
         C33       1.0000    0.08350   0.13420   0.19300   Biso      1.000     C          -0.197208           
         C34       1.0000    0.98580   0.34010   0.06370   Biso      1.000     C          0.60661   
         C35       1.0000    0.08360   0.21940   0.15760   Biso      1.000     C          -0.032214           
         C36       1.0000    0.88820   0.18190   0.07830   Biso      1.000     C          0.064626  
         C37       1.0000    0.01420   0.65990   0.93630   Biso      1.000     C          0.60661   
         C38       1.0000    0.48800   0.83530   0.92750   Biso      1.000     C          0.216379  
         C39       1.0000    0.01360   0.75210   0.89850   Biso      1.000     C          -0.08079  
         C40       1.0000    0.11180   0.81810   0.92170   Biso      1.000     C          0.064627  
         C41       1.0000    0.01200   0.92750   0.83530   Biso      1.000     C          0.216379  
         C42       1.0000    0.90470   0.92730   0.55750   Biso      1.000     C          0.197376  
         C43       1.0000    0.01800   0.87000   0.53120   Biso      1.000     C          -0.183599           
         C44       1.0000    0.03510   0.78450   0.41770   Biso      1.000     C          -0.024003           
         C45       1.0000    0.82970   0.81590   0.36590   Biso      1.000     C          0.085397  
         C46       1.0000    0.94000   0.75490   0.33330   Biso      1.000     C          -0.08458099999999999          
         C47       1.0000    0.95480   0.66060   0.21000   Biso      1.000     C          0.604043  
         C48       1.0000    0.91640   0.78060   0.84240   Biso      1.000     C          -0.032207           
         H1        1.0000    0.65330   0.82740   0.74080   Biso      1.000     H          0.1137    
         H2        1.0000    0.31930   0.96160   0.80360   Biso      1.000     H          0.09131399999999999           
         H3        1.0000    0.41890   0.58900   0.88920   Biso      1.000     H          0.13334000000000001           
         H4        1.0000    0.73490   0.30950   0.79670   Biso      1.000     H          0.10461   
         H5        1.0000    0.11090   0.74620   0.39780   Biso      1.000     H          0.130276  
         H6        1.0000    0.84670   0.74080   0.82740   Biso      1.000     H          0.113699  
         H7        1.0000    0.18070   0.80360   0.96160   Biso      1.000     H          0.09131399999999999           
         H8        1.0000    0.08110   0.88920   0.58900   Biso      1.000     H          0.13334000000000001           
         H9        1.0000    0.64970   0.76380   0.87980   Biso      1.000     H          0.11465499999999999           
         H10       1.0000    0.76510   0.79670   0.30950   Biso      1.000     H          0.10461   
         H11       1.0000    0.85030   0.87980   0.76380   Biso      1.000     H          0.11465499999999999           
         H12       1.0000    0.23490   0.20330   0.69050   Biso      1.000     H          0.10461   
         H13       1.0000    0.38910   0.39780   0.74620   Biso      1.000     H          0.130276  
         H14       1.0000    0.91890   0.11080   0.41100   Biso      1.000     H          0.13334000000000001           
         H15       1.0000    0.88910   0.25380   0.60220   Biso      1.000     H          0.130275  
         H16       1.0000    0.34670   0.17260   0.25920   Biso      1.000     H          0.1137    
         H17       1.0000    0.68070   0.03840   0.19640   Biso      1.000     H          0.09131399999999999           
         H18       1.0000    0.58110   0.41100   0.11080   Biso      1.000     H          0.13334000000000001           
         H19       1.0000    0.61090   0.60220   0.25380   Biso      1.000     H          0.130276  
         H20       1.0000    0.35030   0.23620   0.12020   Biso      1.000     H          0.11465499999999999           
         H21       1.0000    0.26510   0.69050   0.20330   Biso      1.000     H          0.10461   
         H22       1.0000    0.14970   0.12020   0.23620   Biso      1.000     H          0.114652  
         H23       1.0000    0.15330   0.25920   0.17260   Biso      1.000     H          0.1137    
         H24       1.0000    0.81930   0.19640   0.03840   Biso      1.000     H          0.09131399999999999           
         N1        1.0000    0.31170   0.52390   0.09770   Biso      1.000     N          -0.25402399999999997          
         N2        1.0000    0.18830   0.09770   0.52390   Biso      1.000     N          -0.25402399999999997          
         N3        1.0000    0.88970   0.09510   0.11250   Biso      1.000     N          -0.28631799999999996          
         N4        1.0000    0.68830   0.47610   0.90230   Biso      1.000     N          -0.25402399999999997          
         N5        1.0000    0.38970   0.88750   0.90490   Biso      1.000     N          -0.286323           
         N6        1.0000    0.81170   0.90230   0.47610   Biso      1.000     N          -0.25402399999999997          
         N7        1.0000    0.11030   0.90490   0.88750   Biso      1.000     N          -0.286323           
         N8        1.0000    0.61030   0.11250   0.09510   Biso      1.000     N          -0.286323           
         O1        1.0000    0.06090   0.62560   0.18140   Biso      1.000     O          -0.554566           
         O2        1.0000    0.86170   0.62220   0.14380   Biso      1.000     O          -0.557894           
         O3        1.0000    0.08580   0.37990   0.07030   Biso      1.000     O          -0.570098           
         O4        1.0000    0.58580   0.92970   0.62010   Biso      1.000     O          -0.570098           
         O5        1.0000    0.43910   0.18140   0.62560   Biso      1.000     O          -0.554566           
         O6        1.0000    0.63830   0.14380   0.62220   Biso      1.000     O          -0.557894           
         O7        1.0000    0.88660   0.37260   0.02700   Biso      1.000     O          -0.556449           
         O8        1.0000    0.41420   0.07030   0.37990   Biso      1.000     O          -0.570098           
         O9        1.0000    0.61340   0.02700   0.37260   Biso      1.000     O          -0.556449           
         O10       1.0000    0.13830   0.37780   0.85620   Biso      1.000     O          -0.557894           
         O11       1.0000    0.93910   0.37440   0.81860   Biso      1.000     O          -0.554566           
         O12       1.0000    0.38660   0.97300   0.62740   Biso      1.000     O          -0.556449           
         O13       1.0000    0.91420   0.62010   0.92970   Biso      1.000     O          -0.570098           
         O14       1.0000    0.36170   0.85620   0.37780   Biso      1.000     O          -0.557894           
         O15       1.0000    0.56090   0.81860   0.37440   Biso      1.000     O          -0.554566           
         O16       1.0000    0.11340   0.62740   0.97300   Biso      1.000     O          -0.556449           
         S1        1.0000    0.36831   0.30013   0.95949   Biso      1.000     S          0.046098  
         S2        1.0000    0.52025   0.19843   0.95369   Biso      1.000     S          -0.001112           
         S3        1.0000    0.13169   0.95949   0.30013   Biso      1.000     S          0.046097000000000006          
         S4        1.0000    0.97975   0.95369   0.19843   Biso      1.000     S          -0.001108           
         S5        1.0000    0.63169   0.69987   0.04051   Biso      1.000     S          0.046098  
         S6        1.0000    0.47975   0.80157   0.04631   Biso      1.000     S          -0.001112           
         S7        1.0000    0.86831   0.04051   0.69987   Biso      1.000     S          0.046098  
         S8        1.0000    0.02025   0.04631   0.80157   Biso      1.000     S          -0.001111           
         Zn1       1.0000    0.36561   0.02679   0.50159   Biso      1.000     Zn          0.874481  
         Zn2       1.0000    0.13439   0.50159   0.02679   Biso      1.000     Zn          0.8744790000000001  
         Zn3       1.0000    0.63439   0.97321   0.49841   Biso      1.000     Zn          0.874481  
         Zn4       1.0000    0.86561   0.49841   0.97321   Biso      1.000     Zn          0.874481 