
##########################################################################
#               Crystallographic Information Format file
#               Produced by PyCifRW module
#
#  This is a CIF file.  CIF has been adopted by the International
#  Union of Crystallography as the standard for data archiving and
#  transmission.
#
#  For information on this file format, follow the CIF links at
#  http://www.iucr.org
##########################################################################

data_image0

_cell_length_a                          15.5019
_cell_length_b                          15.5019
_cell_length_c                          12.306
_cell_angle_alpha                       90
_cell_angle_beta                        90
_cell_angle_gamma                       90
_symmetry_space_group_name_H-M          'P 1'
_symmetry_int_tables_number             1
loop_
  _symmetry_equiv_pos_as_xyz
         'x, y, z' 
loop_
  _atom_site_label
  _atom_site_occupancy
  _atom_site_fract_x
  _atom_site_fract_y
  _atom_site_fract_z
  _atom_site_thermal_displace_type
  _atom_site_B_iso_or_equiv
  _atom_site_type_symbol
  _atom_site_charge
         C1        1.0000    0.43248   0.53910   0.11720   Biso      1.000     C          -0.12287999999999999          
         C2        1.0000    0.06752   0.53910   0.63280   Biso      1.000     C          -0.12287999999999999          
         C3        1.0000    0.93248   0.03910   0.73070   Biso      1.000     C          -0.03515  
         C4        1.0000    0.00000   0.00000   0.43950   Biso      1.000     C          0.06672   
         C5        1.0000    0.00000   0.00000   0.21260   Biso      1.000     C          -0.102656           
         C6        1.0000    0.86430   0.41710   0.46040   Biso      1.000     C          0.654104  
         C7        1.0000    0.93248   0.46090   0.51930   Biso      1.000     C          -0.03515  
         C8        1.0000    0.93248   0.46090   0.63280   Biso      1.000     C          -0.12287999999999999          
         C9        1.0000    0.43248   0.53910   0.23070   Biso      1.000     C          -0.035151           
         C10       1.0000    0.50000   0.50000   0.93950   Biso      1.000     C          0.06672   
         C11       1.0000    0.50000   0.50000   0.71260   Biso      1.000     C          -0.102656           
         C12       1.0000    0.36430   0.91710   0.96040   Biso      1.000     C          0.654104  
         C13       1.0000    0.43248   0.96090   0.01930   Biso      1.000     C          -0.035151           
         C14       1.0000    0.43248   0.96090   0.13280   Biso      1.000     C          -0.12288099999999999          
         C15       1.0000    0.86430   0.08290   0.78960   Biso      1.000     C          0.654104  
         C16       1.0000    0.56752   0.46090   0.11720   Biso      1.000     C          -0.12287999999999999          
         C17       1.0000    0.91710   0.36430   0.03960   Biso      1.000     C          0.654104  
         C18       1.0000    0.96090   0.43248   0.98070   Biso      1.000     C          -0.03515  
         C19       1.0000    0.96090   0.43248   0.86720   Biso      1.000     C          -0.12287999999999999          
         C20       1.0000    0.50000   0.50000   0.06050   Biso      1.000     C          0.066719  
         C21       1.0000    0.03910   0.56752   0.86720   Biso      1.000     C          -0.12287999999999999          
         C22       1.0000    0.03910   0.56752   0.98070   Biso      1.000     C          -0.035151           
         C23       1.0000    0.41710   0.86430   0.53960   Biso      1.000     C          0.654104  
         C24       1.0000    0.46090   0.93248   0.48070   Biso      1.000     C          -0.035151           
         C25       1.0000    0.46090   0.93248   0.36720   Biso      1.000     C          -0.12287999999999999          
         C26       1.0000    0.08290   0.63570   0.03960   Biso      1.000     C          0.654105  
         C27       1.0000    0.13570   0.91710   0.78960   Biso      1.000     C          0.654104  
         C28       1.0000    0.06752   0.96090   0.73070   Biso      1.000     C          -0.03515  
         C29       1.0000    0.58290   0.13570   0.53960   Biso      1.000     C          0.654104  
         C30       1.0000    0.53910   0.06752   0.48070   Biso      1.000     C          -0.035151           
         C31       1.0000    0.06752   0.53910   0.51930   Biso      1.000     C          -0.035151           
         C32       1.0000    0.53910   0.06752   0.36720   Biso      1.000     C          -0.12287999999999999          
         C33       1.0000    0.13570   0.58290   0.46040   Biso      1.000     C          0.654104  
         C34       1.0000    0.50000   0.00000   0.18950   Biso      1.000     C          0.06672   
         C35       1.0000    0.50000   0.50000   0.28740   Biso      1.000     C          -0.102656           
         C36       1.0000    0.58290   0.36430   0.71040   Biso      1.000     C          0.654105  
         C37       1.0000    0.53910   0.43248   0.76930   Biso      1.000     C          -0.035151           
         C38       1.0000    0.53910   0.43248   0.88280   Biso      1.000     C          -0.12288099999999999          
         C39       1.0000    0.36430   0.58290   0.28960   Biso      1.000     C          0.654105  
         C40       1.0000    0.00000   0.00000   0.56050   Biso      1.000     C          0.06672   
         C41       1.0000    0.00000   0.00000   0.78740   Biso      1.000     C          -0.102656           
         C42       1.0000    0.08290   0.86430   0.21040   Biso      1.000     C          0.654104  
         C43       1.0000    0.03910   0.93248   0.26930   Biso      1.000     C          -0.03515  
         C44       1.0000    0.03910   0.93248   0.38280   Biso      1.000     C          -0.12288099999999999          
         C45       1.0000    0.50000   0.00000   0.31050   Biso      1.000     C          0.066719  
         C46       1.0000    0.50000   0.00000   0.53740   Biso      1.000     C          -0.102656           
         C47       1.0000    0.91710   0.13570   0.21040   Biso      1.000     C          0.654104  
         C48       1.0000    0.50000   0.00000   0.96260   Biso      1.000     C          -0.102656           
         C49       1.0000    0.06752   0.96090   0.61720   Biso      1.000     C          -0.12288099999999999          
         C50       1.0000    0.96090   0.06752   0.38280   Biso      1.000     C          -0.12288099999999999          
         C51       1.0000    0.93248   0.03910   0.61720   Biso      1.000     C          -0.12288099999999999          
         C52       1.0000    0.56752   0.03910   0.13280   Biso      1.000     C          -0.12288099999999999          
         C53       1.0000    0.56752   0.03910   0.01930   Biso      1.000     C          -0.035151           
         C54       1.0000    0.63570   0.08290   0.96040   Biso      1.000     C          0.654105  
         C55       1.0000    0.00000   0.50000   0.46260   Biso      1.000     C          -0.102656           
         C56       1.0000    0.00000   0.50000   0.68950   Biso      1.000     C          0.066719  
         C57       1.0000    0.96090   0.06752   0.26930   Biso      1.000     C          -0.035151           
         C58       1.0000    0.56752   0.46090   0.23070   Biso      1.000     C          -0.035151           
         C59       1.0000    0.46090   0.56752   0.76930   Biso      1.000     C          -0.035151           
         C60       1.0000    0.41710   0.63570   0.71040   Biso      1.000     C          0.654105  
         C61       1.0000    0.00000   0.50000   0.03740   Biso      1.000     C          -0.102656           
         C62       1.0000    0.00000   0.50000   0.81050   Biso      1.000     C          0.066719  
         C63       1.0000    0.63570   0.41710   0.28960   Biso      1.000     C          0.654105  
         C64       1.0000    0.46090   0.56752   0.88280   Biso      1.000     C          -0.12288099999999999          
         H1        1.0000    0.38170   0.56840   0.07460   Biso      1.000     H          0.122475  
         H2        1.0000    0.61830   0.43160   0.07460   Biso      1.000     H          0.122475  
         H3        1.0000    0.06840   0.61830   0.82460   Biso      1.000     H          0.122475  
         H4        1.0000    0.81550   0.25000   0.62500   Biso      1.000     H          0.40961800000000004           
         H5        1.0000    0.31550   0.75000   0.12500   Biso      1.000     H          0.40961800000000004           
         H6        1.0000    0.68450   0.25000   0.12500   Biso      1.000     H          0.40961800000000004           
         H7        1.0000    0.18450   0.75000   0.62500   Biso      1.000     H          0.40961800000000004           
         H8        1.0000    0.75000   0.31550   0.87500   Biso      1.000     H          0.40961800000000004           
         H9        1.0000    0.25000   0.81550   0.37500   Biso      1.000     H          0.40961800000000004           
         H10       1.0000    0.75000   0.18450   0.37500   Biso      1.000     H          0.40961800000000004           
         H11       1.0000    0.25000   0.68450   0.87500   Biso      1.000     H          0.40961800000000004           
         H12       1.0000    0.00000   0.00000   0.12730   Biso      1.000     H          0.121583  
         H13       1.0000    0.50000   0.00000   0.87730   Biso      1.000     H          0.121584  
         H14       1.0000    0.00000   0.50000   0.37730   Biso      1.000     H          0.121583  
         H15       1.0000    0.00000   0.50000   0.12270   Biso      1.000     H          0.121584  
         H16       1.0000    0.50000   0.00000   0.62270   Biso      1.000     H          0.121584  
         H17       1.0000    0.00000   0.00000   0.87270   Biso      1.000     H          0.121584  
         H18       1.0000    0.11830   0.93160   0.57460   Biso      1.000     H          0.122475  
         H19       1.0000    0.50000   0.50000   0.62730   Biso      1.000     H          0.121584  
         H20       1.0000    0.50000   0.50000   0.37270   Biso      1.000     H          0.121584  
         H21       1.0000    0.93160   0.38170   0.82460   Biso      1.000     H          0.122475  
         H22       1.0000    0.88170   0.43160   0.67540   Biso      1.000     H          0.122475  
         H23       1.0000    0.11830   0.56840   0.67540   Biso      1.000     H          0.122475  
         H24       1.0000    0.61830   0.06840   0.17540   Biso      1.000     H          0.122475  
         H25       1.0000    0.43160   0.88170   0.32460   Biso      1.000     H          0.122475  
         H26       1.0000    0.43160   0.61830   0.92540   Biso      1.000     H          0.122475  
         H27       1.0000    0.56840   0.11830   0.32460   Biso      1.000     H          0.122475  
         H28       1.0000    0.93160   0.11830   0.42540   Biso      1.000     H          0.122475  
         H29       1.0000    0.38170   0.93160   0.17540   Biso      1.000     H          0.122475  
         H30       1.0000    0.88170   0.06840   0.57460   Biso      1.000     H          0.122475  
         H31       1.0000    0.06840   0.88170   0.42540   Biso      1.000     H          0.122475  
         H32       1.0000    0.56840   0.38170   0.92540   Biso      1.000     H          0.122475  
         In1       1.0000    0.32810   0.82810   0.75000   Biso      1.000     In          1.636901  
         In2       1.0000    0.82810   0.32810   0.25000   Biso      1.000     In          1.636901  
         In3       1.0000    0.67190   0.17190   0.75000   Biso      1.000     In          1.636901  
         In4       1.0000    0.17190   0.67190   0.25000   Biso      1.000     In          1.636902  
         In5       1.0000    0.82810   0.17190   0.00000   Biso      1.000     In          1.636902  
         In6       1.0000    0.17190   0.82810   0.00000   Biso      1.000     In          1.636902  
         In7       1.0000    0.67190   0.32810   0.50000   Biso      1.000     In          1.636902  
         In8       1.0000    0.32810   0.67190   0.50000   Biso      1.000     In          1.636901  
         O1        1.0000    0.11830   0.61350   0.36820   Biso      1.000     O          -0.593586           
         O2        1.0000    0.79120   0.41190   0.50450   Biso      1.000     O          -0.588072           
         O3        1.0000    0.88170   0.38650   0.36820   Biso      1.000     O          -0.593586           
         O4        1.0000    0.38170   0.88650   0.86820   Biso      1.000     O          -0.593586           
         O5        1.0000    0.20880   0.58810   0.50450   Biso      1.000     O          -0.588072           
         O6        1.0000    0.58810   0.29120   0.75450   Biso      1.000     O          -0.588072           
         O7        1.0000    0.88650   0.11830   0.11820   Biso      1.000     O          -0.593586           
         O8        1.0000    0.11350   0.88170   0.11820   Biso      1.000     O          -0.593586           
         O9        1.0000    0.61830   0.11350   0.86820   Biso      1.000     O          -0.593586           
         O10       1.0000    0.91190   0.20880   0.25450   Biso      1.000     O          -0.588072           
         O11       1.0000    0.41190   0.70880   0.75450   Biso      1.000     O          -0.588072           
         O12       1.0000    0.29120   0.91190   0.00450   Biso      1.000     O          -0.588072           
         O13       1.0000    0.38650   0.61830   0.61820   Biso      1.000     O          -0.593586           
         O14       1.0000    0.70880   0.08810   0.00450   Biso      1.000     O          -0.588072           
         O15       1.0000    0.08810   0.79120   0.25450   Biso      1.000     O          -0.588072           
         O16       1.0000    0.61830   0.38650   0.38180   Biso      1.000     O          -0.593586           
         O17       1.0000    0.88650   0.38170   0.13180   Biso      1.000     O          -0.593586           
         O18       1.0000    0.70880   0.41190   0.24550   Biso      1.000     O          -0.588072           
         O19       1.0000    0.38170   0.61350   0.38180   Biso      1.000     O          -0.593586           
         O20       1.0000    0.79120   0.08810   0.74550   Biso      1.000     O          -0.588072           
         O21       1.0000    0.88170   0.11350   0.88180   Biso      1.000     O          -0.593586           
         O22       1.0000    0.11830   0.88650   0.88180   Biso      1.000     O          -0.593586           
         O23       1.0000    0.20880   0.91190   0.74550   Biso      1.000     O          -0.588072           
         O24       1.0000    0.08810   0.70880   0.99550   Biso      1.000     O          -0.588072           
         O25       1.0000    0.11350   0.61830   0.13180   Biso      1.000     O          -0.593586           
         O26       1.0000    0.58810   0.20880   0.49550   Biso      1.000     O          -0.588072           
         O27       1.0000    0.75750   0.25000   0.62500   Biso      1.000     O          -1.005947           
         O28       1.0000    0.61350   0.11830   0.63180   Biso      1.000     O          -0.593586           
         O29       1.0000    0.25750   0.75000   0.12500   Biso      1.000     O          -1.005947           
         O30       1.0000    0.74250   0.25000   0.12500   Biso      1.000     O          -1.005947           
         O31       1.0000    0.41190   0.79120   0.49550   Biso      1.000     O          -0.588072           
         O32       1.0000    0.24250   0.75000   0.62500   Biso      1.000     O          -1.005947           
         O33       1.0000    0.38650   0.88170   0.63180   Biso      1.000     O          -0.593586           
         O34       1.0000    0.75000   0.25750   0.87500   Biso      1.000     O          -1.005947           
         O35       1.0000    0.29120   0.58810   0.24550   Biso      1.000     O          -0.588072           
         O36       1.0000    0.25000   0.75750   0.37500   Biso      1.000     O          -1.005947           
         O37       1.0000    0.91190   0.29120   0.99550   Biso      1.000     O          -0.588072           
         O38       1.0000    0.75000   0.24250   0.37500   Biso      1.000     O          -1.005947           
         O39       1.0000    0.25000   0.74250   0.87500   Biso      1.000     O          -1.005947           
         O40       1.0000    0.61350   0.38170   0.61820   Biso      1.000     O          -0.593586 