
##########################################################################
#               Crystallographic Information Format file
#               Produced by PyCifRW module
#
#  This is a CIF file.  CIF has been adopted by the International
#  Union of Crystallography as the standard for data archiving and
#  transmission.
#
#  For information on this file format, follow the CIF links at
#  http://www.iucr.org
##########################################################################

data_image0

_cell_length_a                          15.4636
_cell_length_b                          15.4636
_cell_length_c                          12.2904
_cell_angle_alpha                       90
_cell_angle_beta                        90
_cell_angle_gamma                       90
_symmetry_space_group_name_H-M          'P 1'
_symmetry_int_tables_number             1
loop_
  _symmetry_equiv_pos_as_xyz
         'x, y, z' 
loop_
  _atom_site_label
  _atom_site_occupancy
  _atom_site_fract_x
  _atom_site_fract_y
  _atom_site_fract_z
  _atom_site_thermal_displace_type
  _atom_site_B_iso_or_equiv
  _atom_site_type_symbol
  _atom_site_charge
         C1        1.0000    0.43088   0.53685   0.11875   Biso      1.000     C          -0.128138           
         C2        1.0000    0.06912   0.53685   0.63125   Biso      1.000     C          -0.128138           
         C3        1.0000    0.93088   0.03685   0.73260   Biso      1.000     C          -0.032411           
         C4        1.0000    0.00000   0.00000   0.43814   Biso      1.000     C          0.063286  
         C5        1.0000    0.00000   0.00000   0.21060   Biso      1.000     C          -0.089642           
         C6        1.0000    0.86440   0.41630   0.45880   Biso      1.000     C          0.6461899999999999  
         C7        1.0000    0.93088   0.46315   0.51740   Biso      1.000     C          -0.032411           
         C8        1.0000    0.93088   0.46315   0.63125   Biso      1.000     C          -0.128138           
         C9        1.0000    0.43088   0.53685   0.23260   Biso      1.000     C          -0.032411           
         C10       1.0000    0.50000   0.50000   0.93814   Biso      1.000     C          0.063286  
         C11       1.0000    0.50000   0.50000   0.71060   Biso      1.000     C          -0.089642           
         C12       1.0000    0.36440   0.91630   0.95880   Biso      1.000     C          0.6461899999999999  
         C13       1.0000    0.43088   0.96315   0.01740   Biso      1.000     C          -0.032411           
         C14       1.0000    0.43088   0.96315   0.13125   Biso      1.000     C          -0.128138           
         C15       1.0000    0.86440   0.08370   0.79120   Biso      1.000     C          0.6461899999999999  
         C16       1.0000    0.56912   0.46315   0.11875   Biso      1.000     C          -0.128138           
         C17       1.0000    0.91630   0.36440   0.04120   Biso      1.000     C          0.6461899999999999  
         C18       1.0000    0.96315   0.43088   0.98260   Biso      1.000     C          -0.032411           
         C19       1.0000    0.96315   0.43088   0.86875   Biso      1.000     C          -0.128138           
         C20       1.0000    0.50000   0.50000   0.06186   Biso      1.000     C          0.06328500000000001           
         C21       1.0000    0.03685   0.56912   0.86875   Biso      1.000     C          -0.128138           
         C22       1.0000    0.03685   0.56912   0.98260   Biso      1.000     C          -0.032411           
         C23       1.0000    0.41630   0.86440   0.54120   Biso      1.000     C          0.6461899999999999  
         C24       1.0000    0.46315   0.93088   0.48260   Biso      1.000     C          -0.032411           
         C25       1.0000    0.46315   0.93088   0.36875   Biso      1.000     C          -0.128138           
         C26       1.0000    0.08370   0.63560   0.04120   Biso      1.000     C          0.6461899999999999  
         C27       1.0000    0.13560   0.91630   0.79120   Biso      1.000     C          0.6461899999999999  
         C28       1.0000    0.06912   0.96315   0.73260   Biso      1.000     C          -0.032411           
         C29       1.0000    0.58370   0.13560   0.54120   Biso      1.000     C          0.6461899999999999  
         C30       1.0000    0.53685   0.06912   0.48260   Biso      1.000     C          -0.032411           
         C31       1.0000    0.06912   0.53685   0.51740   Biso      1.000     C          -0.032411           
         C32       1.0000    0.53685   0.06912   0.36875   Biso      1.000     C          -0.128138           
         C33       1.0000    0.13560   0.58370   0.45880   Biso      1.000     C          0.6461899999999999  
         C34       1.0000    0.50000   0.00000   0.18814   Biso      1.000     C          0.063286  
         C35       1.0000    0.50000   0.50000   0.28940   Biso      1.000     C          -0.089642           
         C36       1.0000    0.58370   0.36440   0.70880   Biso      1.000     C          0.6461899999999999  
         C37       1.0000    0.53685   0.43088   0.76740   Biso      1.000     C          -0.032411           
         C38       1.0000    0.53685   0.43088   0.88125   Biso      1.000     C          -0.128138           
         C39       1.0000    0.36440   0.58370   0.29120   Biso      1.000     C          0.6461899999999999  
         C40       1.0000    0.00000   0.00000   0.56186   Biso      1.000     C          0.063286  
         C41       1.0000    0.00000   0.00000   0.78940   Biso      1.000     C          -0.089642           
         C42       1.0000    0.08370   0.86440   0.20880   Biso      1.000     C          0.6461899999999999  
         C43       1.0000    0.03685   0.93088   0.26740   Biso      1.000     C          -0.032411           
         C44       1.0000    0.03685   0.93088   0.38125   Biso      1.000     C          -0.128138           
         C45       1.0000    0.50000   0.00000   0.31186   Biso      1.000     C          0.06328500000000001           
         C46       1.0000    0.50000   0.00000   0.53940   Biso      1.000     C          -0.089642           
         C47       1.0000    0.91630   0.13560   0.20880   Biso      1.000     C          0.6461899999999999  
         C48       1.0000    0.50000   0.00000   0.96060   Biso      1.000     C          -0.089642           
         C49       1.0000    0.06912   0.96315   0.61875   Biso      1.000     C          -0.128138           
         C50       1.0000    0.96315   0.06912   0.38125   Biso      1.000     C          -0.128138           
         C51       1.0000    0.93088   0.03685   0.61875   Biso      1.000     C          -0.128138           
         C52       1.0000    0.56912   0.03685   0.13125   Biso      1.000     C          -0.128138           
         C53       1.0000    0.56912   0.03685   0.01740   Biso      1.000     C          -0.032411           
         C54       1.0000    0.63560   0.08370   0.95880   Biso      1.000     C          0.6461899999999999  
         C55       1.0000    0.00000   0.50000   0.46060   Biso      1.000     C          -0.089642           
         C56       1.0000    0.00000   0.50000   0.68814   Biso      1.000     C          0.06328500000000001           
         C57       1.0000    0.96315   0.06912   0.26740   Biso      1.000     C          -0.032411           
         C58       1.0000    0.56912   0.46315   0.23260   Biso      1.000     C          -0.032411           
         C59       1.0000    0.46315   0.56912   0.76740   Biso      1.000     C          -0.032411           
         C60       1.0000    0.41630   0.63560   0.70880   Biso      1.000     C          0.6461899999999999  
         C61       1.0000    0.00000   0.50000   0.03940   Biso      1.000     C          -0.089642           
         C62       1.0000    0.00000   0.50000   0.81186   Biso      1.000     C          0.06328500000000001           
         C63       1.0000    0.63560   0.41630   0.29120   Biso      1.000     C          0.6461899999999999  
         C64       1.0000    0.46315   0.56912   0.88125   Biso      1.000     C          -0.128138           
         H1        1.0000    0.37900   0.56450   0.07600   Biso      1.000     H          0.11800799999999999           
         H2        1.0000    0.62100   0.43550   0.07600   Biso      1.000     H          0.11800799999999999           
         H3        1.0000    0.06450   0.62100   0.82600   Biso      1.000     H          0.11800799999999999           
         H4        1.0000    0.81990   0.25000   0.62500   Biso      1.000     H          0.42811000000000005           
         H5        1.0000    0.31990   0.75000   0.12500   Biso      1.000     H          0.42811000000000005           
         H6        1.0000    0.68010   0.25000   0.12500   Biso      1.000     H          0.42811000000000005           
         H7        1.0000    0.18010   0.75000   0.62500   Biso      1.000     H          0.42811000000000005           
         H8        1.0000    0.75000   0.31990   0.87500   Biso      1.000     H          0.42811000000000005           
         H9        1.0000    0.25000   0.81990   0.37500   Biso      1.000     H          0.42811000000000005           
         H10       1.0000    0.75000   0.18010   0.37500   Biso      1.000     H          0.42811000000000005           
         H11       1.0000    0.25000   0.68010   0.87500   Biso      1.000     H          0.42811000000000005           
         H12       1.0000    0.00000   0.00000   0.12510   Biso      1.000     H          0.132693  
         H13       1.0000    0.50000   0.00000   0.87510   Biso      1.000     H          0.132693  
         H14       1.0000    0.00000   0.50000   0.37510   Biso      1.000     H          0.132693  
         H15       1.0000    0.00000   0.50000   0.12490   Biso      1.000     H          0.132693  
         H16       1.0000    0.50000   0.00000   0.62490   Biso      1.000     H          0.132693  
         H17       1.0000    0.00000   0.00000   0.87490   Biso      1.000     H          0.132693  
         H18       1.0000    0.12100   0.93550   0.57600   Biso      1.000     H          0.11800799999999999           
         H19       1.0000    0.50000   0.50000   0.62510   Biso      1.000     H          0.132693  
         H20       1.0000    0.50000   0.50000   0.37490   Biso      1.000     H          0.132693  
         H21       1.0000    0.93550   0.37900   0.82600   Biso      1.000     H          0.11800799999999999           
         H22       1.0000    0.87900   0.43550   0.67400   Biso      1.000     H          0.11800799999999999           
         H23       1.0000    0.12100   0.56450   0.67400   Biso      1.000     H          0.11800799999999999           
         H24       1.0000    0.62100   0.06450   0.17400   Biso      1.000     H          0.11800799999999999           
         H25       1.0000    0.43550   0.87900   0.32600   Biso      1.000     H          0.11800799999999999           
         H26       1.0000    0.43550   0.62100   0.92400   Biso      1.000     H          0.11800799999999999           
         H27       1.0000    0.56450   0.12100   0.32600   Biso      1.000     H          0.11800799999999999           
         H28       1.0000    0.93550   0.12100   0.42400   Biso      1.000     H          0.11800799999999999           
         H29       1.0000    0.37900   0.93550   0.17400   Biso      1.000     H          0.11800799999999999           
         H30       1.0000    0.87900   0.06450   0.57600   Biso      1.000     H          0.11800799999999999           
         H31       1.0000    0.06450   0.87900   0.42400   Biso      1.000     H          0.11800799999999999           
         H32       1.0000    0.56450   0.37900   0.92400   Biso      1.000     H          0.11800799999999999           
         In1       1.0000    0.31250   0.81250   0.75000   Biso      1.000     In          1.632926  
         In2       1.0000    0.81250   0.31250   0.25000   Biso      1.000     In          1.632926  
         In3       1.0000    0.68750   0.18750   0.75000   Biso      1.000     In          1.632926  
         In4       1.0000    0.18750   0.68750   0.25000   Biso      1.000     In          1.632926  
         In5       1.0000    0.81250   0.18750   0.00000   Biso      1.000     In          1.632926  
         In6       1.0000    0.18750   0.81250   0.00000   Biso      1.000     In          1.632926  
         In7       1.0000    0.68750   0.31250   0.50000   Biso      1.000     In          1.632926  
         In8       1.0000    0.31250   0.68750   0.50000   Biso      1.000     In          1.632926  
         O1        1.0000    0.11940   0.61390   0.36600   Biso      1.000     O          -0.585799           
         O2        1.0000    0.79100   0.40620   0.50120   Biso      1.000     O          -0.609561           
         O3        1.0000    0.88060   0.38610   0.36600   Biso      1.000     O          -0.585799           
         O4        1.0000    0.38060   0.88610   0.86600   Biso      1.000     O          -0.585799           
         O5        1.0000    0.20900   0.59380   0.50120   Biso      1.000     O          -0.609561           
         O6        1.0000    0.59380   0.29100   0.75120   Biso      1.000     O          -0.609561           
         O7        1.0000    0.88610   0.11940   0.11600   Biso      1.000     O          -0.585799           
         O8        1.0000    0.11390   0.88060   0.11600   Biso      1.000     O          -0.585799           
         O9        1.0000    0.61940   0.11390   0.86600   Biso      1.000     O          -0.585799           
         O10       1.0000    0.90620   0.20900   0.25120   Biso      1.000     O          -0.609561           
         O11       1.0000    0.40620   0.70900   0.75120   Biso      1.000     O          -0.609561           
         O12       1.0000    0.29100   0.90620   0.00120   Biso      1.000     O          -0.609561           
         O13       1.0000    0.38610   0.61940   0.61600   Biso      1.000     O          -0.585799           
         O14       1.0000    0.70900   0.09380   0.00120   Biso      1.000     O          -0.609561           
         O15       1.0000    0.09380   0.79100   0.25120   Biso      1.000     O          -0.609561           
         O16       1.0000    0.61940   0.38610   0.38400   Biso      1.000     O          -0.585799           
         O17       1.0000    0.88610   0.38060   0.13400   Biso      1.000     O          -0.585799           
         O18       1.0000    0.70900   0.40620   0.24880   Biso      1.000     O          -0.609561           
         O19       1.0000    0.38060   0.61390   0.38400   Biso      1.000     O          -0.585799           
         O20       1.0000    0.79100   0.09380   0.74880   Biso      1.000     O          -0.609561           
         O21       1.0000    0.88060   0.11390   0.88400   Biso      1.000     O          -0.585799           
         O22       1.0000    0.11940   0.88610   0.88400   Biso      1.000     O          -0.585799           
         O23       1.0000    0.20900   0.90620   0.74880   Biso      1.000     O          -0.609561           
         O24       1.0000    0.09380   0.70900   0.99880   Biso      1.000     O          -0.609561           
         O25       1.0000    0.11390   0.61940   0.13400   Biso      1.000     O          -0.585799           
         O26       1.0000    0.59380   0.20900   0.49880   Biso      1.000     O          -0.609561           
         O27       1.0000    0.76170   0.25000   0.62500   Biso      1.000     O          -0.983949           
         O28       1.0000    0.61390   0.11940   0.63400   Biso      1.000     O          -0.585799           
         O29       1.0000    0.26170   0.75000   0.12500   Biso      1.000     O          -0.983949           
         O30       1.0000    0.73830   0.25000   0.12500   Biso      1.000     O          -0.983949           
         O31       1.0000    0.40620   0.79100   0.49880   Biso      1.000     O          -0.609561           
         O32       1.0000    0.23830   0.75000   0.62500   Biso      1.000     O          -0.983949           
         O33       1.0000    0.38610   0.88060   0.63400   Biso      1.000     O          -0.585799           
         O34       1.0000    0.75000   0.26170   0.87500   Biso      1.000     O          -0.983949           
         O35       1.0000    0.29100   0.59380   0.24880   Biso      1.000     O          -0.609561           
         O36       1.0000    0.25000   0.76170   0.37500   Biso      1.000     O          -0.983949           
         O37       1.0000    0.90620   0.29100   0.99880   Biso      1.000     O          -0.609561           
         O38       1.0000    0.75000   0.23830   0.37500   Biso      1.000     O          -0.983949           
         O39       1.0000    0.25000   0.73830   0.87500   Biso      1.000     O          -0.983949           
         O40       1.0000    0.61390   0.38060   0.61600   Biso      1.000     O          -0.585799 