
##########################################################################
#               Crystallographic Information Format file
#               Produced by PyCifRW module
#
#  This is a CIF file.  CIF has been adopted by the International
#  Union of Crystallography as the standard for data archiving and
#  transmission.
#
#  For information on this file format, follow the CIF links at
#  http://www.iucr.org
##########################################################################

data_image0

_cell_length_a                          15.4939
_cell_length_b                          15.4939
_cell_length_c                          12.3121
_cell_angle_alpha                       90
_cell_angle_beta                        90
_cell_angle_gamma                       90
_symmetry_space_group_name_H-M          'P 1'
_symmetry_int_tables_number             1
loop_
  _symmetry_equiv_pos_as_xyz
         'x, y, z' 
loop_
  _atom_site_label
  _atom_site_occupancy
  _atom_site_fract_x
  _atom_site_fract_y
  _atom_site_fract_z
  _atom_site_thermal_displace_type
  _atom_site_B_iso_or_equiv
  _atom_site_type_symbol
  _atom_site_charge
         C1        1.0000    0.43092   0.53713   0.11825   Biso      1.000     C          -0.1324   
         C2        1.0000    0.06908   0.53713   0.63175   Biso      1.000     C          -0.1324   
         C3        1.0000    0.93092   0.03713   0.73221   Biso      1.000     C          -0.033638999999999995         
         C4        1.0000    0.00000   0.00000   0.43874   Biso      1.000     C          0.06417300000000001           
         C5        1.0000    0.00000   0.00000   0.21080   Biso      1.000     C          -0.098062           
         C6        1.0000    0.86380   0.41600   0.45870   Biso      1.000     C          0.6472720000000001  
         C7        1.0000    0.93092   0.46287   0.51779   Biso      1.000     C          -0.033638999999999995         
         C8        1.0000    0.93092   0.46287   0.63175   Biso      1.000     C          -0.1324   
         C9        1.0000    0.43092   0.53713   0.23221   Biso      1.000     C          -0.033638999999999995         
         C10       1.0000    0.50000   0.50000   0.93874   Biso      1.000     C          0.06417300000000001           
         C11       1.0000    0.50000   0.50000   0.71080   Biso      1.000     C          -0.098062           
         C12       1.0000    0.36380   0.91600   0.95870   Biso      1.000     C          0.6472720000000001  
         C13       1.0000    0.43092   0.96287   0.01779   Biso      1.000     C          -0.033638999999999995         
         C14       1.0000    0.43092   0.96287   0.13175   Biso      1.000     C          -0.1324   
         C15       1.0000    0.86380   0.08400   0.79130   Biso      1.000     C          0.6472720000000001  
         C16       1.0000    0.56908   0.46287   0.11825   Biso      1.000     C          -0.1324   
         C17       1.0000    0.91600   0.36380   0.04130   Biso      1.000     C          0.6472720000000001  
         C18       1.0000    0.96287   0.43092   0.98221   Biso      1.000     C          -0.033638999999999995         
         C19       1.0000    0.96287   0.43092   0.86825   Biso      1.000     C          -0.1324   
         C20       1.0000    0.50000   0.50000   0.06126   Biso      1.000     C          0.064172  
         C21       1.0000    0.03713   0.56908   0.86825   Biso      1.000     C          -0.1324   
         C22       1.0000    0.03713   0.56908   0.98221   Biso      1.000     C          -0.033638999999999995         
         C23       1.0000    0.41600   0.86380   0.54130   Biso      1.000     C          0.6472720000000001  
         C24       1.0000    0.46287   0.93092   0.48221   Biso      1.000     C          -0.033638999999999995         
         C25       1.0000    0.46287   0.93092   0.36825   Biso      1.000     C          -0.1324   
         C26       1.0000    0.08400   0.63620   0.04130   Biso      1.000     C          0.6472720000000001  
         C27       1.0000    0.13620   0.91600   0.79130   Biso      1.000     C          0.6472720000000001  
         C28       1.0000    0.06908   0.96287   0.73221   Biso      1.000     C          -0.033638999999999995         
         C29       1.0000    0.58400   0.13620   0.54130   Biso      1.000     C          0.6472720000000001  
         C30       1.0000    0.53713   0.06908   0.48221   Biso      1.000     C          -0.033638999999999995         
         C31       1.0000    0.06908   0.53713   0.51779   Biso      1.000     C          -0.033638999999999995         
         C32       1.0000    0.53713   0.06908   0.36825   Biso      1.000     C          -0.1324   
         C33       1.0000    0.13620   0.58400   0.45870   Biso      1.000     C          0.6472720000000001  
         C34       1.0000    0.50000   0.00000   0.18874   Biso      1.000     C          0.064172  
         C35       1.0000    0.50000   0.50000   0.28920   Biso      1.000     C          -0.098062           
         C36       1.0000    0.58400   0.36380   0.70870   Biso      1.000     C          0.6472720000000001  
         C37       1.0000    0.53713   0.43092   0.76779   Biso      1.000     C          -0.033638999999999995         
         C38       1.0000    0.53713   0.43092   0.88175   Biso      1.000     C          -0.1324   
         C39       1.0000    0.36380   0.58400   0.29130   Biso      1.000     C          0.6472720000000001  
         C40       1.0000    0.00000   0.00000   0.56126   Biso      1.000     C          0.064172  
         C41       1.0000    0.00000   0.00000   0.78920   Biso      1.000     C          -0.098062           
         C42       1.0000    0.08400   0.86380   0.20870   Biso      1.000     C          0.6472720000000001  
         C43       1.0000    0.03713   0.93092   0.26779   Biso      1.000     C          -0.033638999999999995         
         C44       1.0000    0.03713   0.93092   0.38175   Biso      1.000     C          -0.1324   
         C45       1.0000    0.50000   0.00000   0.31126   Biso      1.000     C          0.064172  
         C46       1.0000    0.50000   0.00000   0.53920   Biso      1.000     C          -0.098062           
         C47       1.0000    0.91600   0.13620   0.20870   Biso      1.000     C          0.6472720000000001  
         C48       1.0000    0.50000   0.00000   0.96080   Biso      1.000     C          -0.098062           
         C49       1.0000    0.06908   0.96287   0.61825   Biso      1.000     C          -0.1324   
         C50       1.0000    0.96287   0.06908   0.38175   Biso      1.000     C          -0.1324   
         C51       1.0000    0.93092   0.03713   0.61825   Biso      1.000     C          -0.1324   
         C52       1.0000    0.56908   0.03713   0.13175   Biso      1.000     C          -0.1324   
         C53       1.0000    0.56908   0.03713   0.01779   Biso      1.000     C          -0.033638999999999995         
         C54       1.0000    0.63620   0.08400   0.95870   Biso      1.000     C          0.6472720000000001  
         C55       1.0000    0.00000   0.50000   0.46080   Biso      1.000     C          -0.098062           
         C56       1.0000    0.00000   0.50000   0.68874   Biso      1.000     C          0.064172  
         C57       1.0000    0.96287   0.06908   0.26779   Biso      1.000     C          -0.033638999999999995         
         C58       1.0000    0.56908   0.46287   0.23221   Biso      1.000     C          -0.033638999999999995         
         C59       1.0000    0.46287   0.56908   0.76779   Biso      1.000     C          -0.033638999999999995         
         C60       1.0000    0.41600   0.63620   0.70870   Biso      1.000     C          0.6472720000000001  
         C61       1.0000    0.00000   0.50000   0.03920   Biso      1.000     C          -0.098062           
         C62       1.0000    0.00000   0.50000   0.81126   Biso      1.000     C          0.064172  
         C63       1.0000    0.63620   0.41600   0.29130   Biso      1.000     C          0.6472720000000001  
         C64       1.0000    0.46287   0.56908   0.88175   Biso      1.000     C          -0.1324   
         H1        1.0000    0.37920   0.56490   0.07560   Biso      1.000     H          0.11661400000000001           
         H2        1.0000    0.62080   0.43510   0.07560   Biso      1.000     H          0.11661400000000001           
         H3        1.0000    0.06490   0.62080   0.82560   Biso      1.000     H          0.11661400000000001           
         H4        1.0000    0.81570   0.25000   0.62500   Biso      1.000     H          0.42945600000000006           
         H5        1.0000    0.31570   0.75000   0.12500   Biso      1.000     H          0.42945600000000006           
         H6        1.0000    0.68430   0.25000   0.12500   Biso      1.000     H          0.42945600000000006           
         H7        1.0000    0.18430   0.75000   0.62500   Biso      1.000     H          0.42945600000000006           
         H8        1.0000    0.75000   0.31570   0.87500   Biso      1.000     H          0.42945600000000006           
         H9        1.0000    0.25000   0.81570   0.37500   Biso      1.000     H          0.42945600000000006           
         H10       1.0000    0.75000   0.18430   0.37500   Biso      1.000     H          0.42945600000000006           
         H11       1.0000    0.25000   0.68430   0.87500   Biso      1.000     H          0.42945600000000006           
         H12       1.0000    0.00000   0.00000   0.12550   Biso      1.000     H          0.132155  
         H13       1.0000    0.50000   0.00000   0.87550   Biso      1.000     H          0.132155  
         H14       1.0000    0.00000   0.50000   0.37550   Biso      1.000     H          0.132155  
         H15       1.0000    0.00000   0.50000   0.12450   Biso      1.000     H          0.132155  
         H16       1.0000    0.50000   0.00000   0.62450   Biso      1.000     H          0.132155  
         H17       1.0000    0.00000   0.00000   0.87450   Biso      1.000     H          0.132155  
         H18       1.0000    0.12080   0.93510   0.57560   Biso      1.000     H          0.11661400000000001           
         H19       1.0000    0.50000   0.50000   0.62550   Biso      1.000     H          0.132155  
         H20       1.0000    0.50000   0.50000   0.37450   Biso      1.000     H          0.132155  
         H21       1.0000    0.93510   0.37920   0.82560   Biso      1.000     H          0.11661400000000001           
         H22       1.0000    0.87920   0.43510   0.67440   Biso      1.000     H          0.11661400000000001           
         H23       1.0000    0.12080   0.56490   0.67440   Biso      1.000     H          0.11661400000000001           
         H24       1.0000    0.62080   0.06490   0.17440   Biso      1.000     H          0.11661400000000001           
         H25       1.0000    0.43510   0.87920   0.32560   Biso      1.000     H          0.11661400000000001           
         H26       1.0000    0.43510   0.62080   0.92440   Biso      1.000     H          0.11661400000000001           
         H27       1.0000    0.56490   0.12080   0.32560   Biso      1.000     H          0.11661400000000001           
         H28       1.0000    0.93510   0.12080   0.42440   Biso      1.000     H          0.11661400000000001           
         H29       1.0000    0.37920   0.93510   0.17440   Biso      1.000     H          0.11661400000000001           
         H30       1.0000    0.87920   0.06490   0.57560   Biso      1.000     H          0.11661400000000001           
         H31       1.0000    0.06490   0.87920   0.42440   Biso      1.000     H          0.11661400000000001           
         H32       1.0000    0.56490   0.37920   0.92440   Biso      1.000     H          0.11661400000000001           
         In1       1.0000    0.31330   0.81330   0.75000   Biso      1.000     In          1.6173950000000001  
         In2       1.0000    0.81330   0.31330   0.25000   Biso      1.000     In          1.6173950000000001  
         In3       1.0000    0.68670   0.18670   0.75000   Biso      1.000     In          1.6173950000000001  
         In4       1.0000    0.18670   0.68670   0.25000   Biso      1.000     In          1.6173950000000001  
         In5       1.0000    0.81330   0.18670   0.00000   Biso      1.000     In          1.6173950000000001  
         In6       1.0000    0.18670   0.81330   0.00000   Biso      1.000     In          1.6173950000000001  
         In7       1.0000    0.68670   0.31330   0.50000   Biso      1.000     In          1.6173950000000001  
         In8       1.0000    0.31330   0.68670   0.50000   Biso      1.000     In          1.6173950000000001  
         O1        1.0000    0.11880   0.61190   0.36650   Biso      1.000     O          -0.577407           
         O2        1.0000    0.79240   0.40620   0.50340   Biso      1.000     O          -0.6041350000000001           
         O3        1.0000    0.88120   0.38810   0.36650   Biso      1.000     O          -0.577408           
         O4        1.0000    0.38120   0.88810   0.86650   Biso      1.000     O          -0.577407           
         O5        1.0000    0.20760   0.59380   0.50340   Biso      1.000     O          -0.6041350000000001           
         O6        1.0000    0.59380   0.29240   0.75340   Biso      1.000     O          -0.6041350000000001           
         O7        1.0000    0.88810   0.11880   0.11650   Biso      1.000     O          -0.577407           
         O8        1.0000    0.11190   0.88120   0.11650   Biso      1.000     O          -0.577408           
         O9        1.0000    0.61880   0.11190   0.86650   Biso      1.000     O          -0.577408           
         O10       1.0000    0.90620   0.20760   0.25340   Biso      1.000     O          -0.6041350000000001           
         O11       1.0000    0.40620   0.70760   0.75340   Biso      1.000     O          -0.6041350000000001           
         O12       1.0000    0.29240   0.90620   0.00340   Biso      1.000     O          -0.6041350000000001           
         O13       1.0000    0.38810   0.61880   0.61650   Biso      1.000     O          -0.577408           
         O14       1.0000    0.70760   0.09380   0.00340   Biso      1.000     O          -0.6041350000000001           
         O15       1.0000    0.09380   0.79240   0.25340   Biso      1.000     O          -0.6041350000000001           
         O16       1.0000    0.61880   0.38810   0.38350   Biso      1.000     O          -0.577407           
         O17       1.0000    0.88810   0.38120   0.13350   Biso      1.000     O          -0.577407           
         O18       1.0000    0.70760   0.40620   0.24660   Biso      1.000     O          -0.6041350000000001           
         O19       1.0000    0.38120   0.61190   0.38350   Biso      1.000     O          -0.577408           
         O20       1.0000    0.79240   0.09380   0.74660   Biso      1.000     O          -0.6041350000000001           
         O21       1.0000    0.88120   0.11190   0.88350   Biso      1.000     O          -0.577408           
         O22       1.0000    0.11880   0.88810   0.88350   Biso      1.000     O          -0.577408           
         O23       1.0000    0.20760   0.90620   0.74660   Biso      1.000     O          -0.6041350000000001           
         O24       1.0000    0.09380   0.70760   0.99660   Biso      1.000     O          -0.6041350000000001           
         O25       1.0000    0.11190   0.61880   0.13350   Biso      1.000     O          -0.577407           
         O26       1.0000    0.59380   0.20760   0.49660   Biso      1.000     O          -0.6041350000000001           
         O27       1.0000    0.75760   0.25000   0.62500   Biso      1.000     O          -0.977726           
         O28       1.0000    0.61190   0.11880   0.63350   Biso      1.000     O          -0.577408           
         O29       1.0000    0.25760   0.75000   0.12500   Biso      1.000     O          -0.977726           
         O30       1.0000    0.74240   0.25000   0.12500   Biso      1.000     O          -0.977726           
         O31       1.0000    0.40620   0.79240   0.49660   Biso      1.000     O          -0.6041350000000001           
         O32       1.0000    0.24240   0.75000   0.62500   Biso      1.000     O          -0.977726           
         O33       1.0000    0.38810   0.88120   0.63350   Biso      1.000     O          -0.577407           
         O34       1.0000    0.75000   0.25760   0.87500   Biso      1.000     O          -0.977726           
         O35       1.0000    0.29240   0.59380   0.24660   Biso      1.000     O          -0.6041350000000001           
         O36       1.0000    0.25000   0.75760   0.37500   Biso      1.000     O          -0.977726           
         O37       1.0000    0.90620   0.29240   0.99660   Biso      1.000     O          -0.6041350000000001           
         O38       1.0000    0.75000   0.24240   0.37500   Biso      1.000     O          -0.977726           
         O39       1.0000    0.25000   0.74240   0.87500   Biso      1.000     O          -0.977726           
         O40       1.0000    0.61190   0.38120   0.61650   Biso      1.000     O          -0.577407 