
##########################################################################
#               Crystallographic Information Format file
#               Produced by PyCifRW module
#
#  This is a CIF file.  CIF has been adopted by the International
#  Union of Crystallography as the standard for data archiving and
#  transmission.
#
#  For information on this file format, follow the CIF links at
#  http://www.iucr.org
##########################################################################

data_image0

_cell_length_a                          15.4375
_cell_length_b                          15.4375
_cell_length_c                          12.2848
_cell_angle_alpha                       90
_cell_angle_beta                        90
_cell_angle_gamma                       90
_symmetry_space_group_name_H-M          'P 1'
_symmetry_int_tables_number             1
loop_
  _symmetry_equiv_pos_as_xyz
         'x, y, z' 
loop_
  _atom_site_label
  _atom_site_occupancy
  _atom_site_fract_x
  _atom_site_fract_y
  _atom_site_fract_z
  _atom_site_thermal_displace_type
  _atom_site_B_iso_or_equiv
  _atom_site_type_symbol
  _atom_site_charge
         C1        1.0000    0.43096   0.53734   0.11880   Biso      1.000     C          -0.127943           
         C2        1.0000    0.06904   0.53734   0.63120   Biso      1.000     C          -0.127943           
         C3        1.0000    0.93096   0.03734   0.73270   Biso      1.000     C          -0.036055000000000004         
         C4        1.0000    0.00000   0.00000   0.43810   Biso      1.000     C          0.062566  
         C5        1.0000    0.00000   0.00000   0.21040   Biso      1.000     C          -0.095117           
         C6        1.0000    0.86370   0.41670   0.45850   Biso      1.000     C          0.656313  
         C7        1.0000    0.93096   0.46266   0.51730   Biso      1.000     C          -0.036055000000000004         
         C8        1.0000    0.93096   0.46266   0.63120   Biso      1.000     C          -0.127943           
         C9        1.0000    0.43096   0.53734   0.23270   Biso      1.000     C          -0.036055000000000004         
         C10       1.0000    0.50000   0.50000   0.93810   Biso      1.000     C          0.062566  
         C11       1.0000    0.50000   0.50000   0.71040   Biso      1.000     C          -0.095117           
         C12       1.0000    0.36370   0.91670   0.95850   Biso      1.000     C          0.656313  
         C13       1.0000    0.43096   0.96266   0.01730   Biso      1.000     C          -0.036055000000000004         
         C14       1.0000    0.43096   0.96266   0.13120   Biso      1.000     C          -0.127943           
         C15       1.0000    0.86370   0.08330   0.79150   Biso      1.000     C          0.656313  
         C16       1.0000    0.56904   0.46266   0.11880   Biso      1.000     C          -0.127943           
         C17       1.0000    0.91670   0.36370   0.04150   Biso      1.000     C          0.656313  
         C18       1.0000    0.96266   0.43096   0.98270   Biso      1.000     C          -0.036055000000000004         
         C19       1.0000    0.96266   0.43096   0.86880   Biso      1.000     C          -0.127943           
         C20       1.0000    0.50000   0.50000   0.06190   Biso      1.000     C          0.062565  
         C21       1.0000    0.03734   0.56904   0.86880   Biso      1.000     C          -0.127943           
         C22       1.0000    0.03734   0.56904   0.98270   Biso      1.000     C          -0.036055000000000004         
         C23       1.0000    0.41670   0.86370   0.54150   Biso      1.000     C          0.656313  
         C24       1.0000    0.46266   0.93096   0.48270   Biso      1.000     C          -0.036055000000000004         
         C25       1.0000    0.46266   0.93096   0.36880   Biso      1.000     C          -0.127943           
         C26       1.0000    0.08330   0.63630   0.04150   Biso      1.000     C          0.656313  
         C27       1.0000    0.13630   0.91670   0.79150   Biso      1.000     C          0.656313  
         C28       1.0000    0.06904   0.96266   0.73270   Biso      1.000     C          -0.036055000000000004         
         C29       1.0000    0.58330   0.13630   0.54150   Biso      1.000     C          0.656313  
         C30       1.0000    0.53734   0.06904   0.48270   Biso      1.000     C          -0.036055000000000004         
         C31       1.0000    0.06904   0.53734   0.51730   Biso      1.000     C          -0.036055000000000004         
         C32       1.0000    0.53734   0.06904   0.36880   Biso      1.000     C          -0.127943           
         C33       1.0000    0.13630   0.58330   0.45850   Biso      1.000     C          0.656313  
         C34       1.0000    0.50000   0.00000   0.18810   Biso      1.000     C          0.062566  
         C35       1.0000    0.50000   0.50000   0.28960   Biso      1.000     C          -0.095117           
         C36       1.0000    0.58330   0.36370   0.70850   Biso      1.000     C          0.656313  
         C37       1.0000    0.53734   0.43096   0.76730   Biso      1.000     C          -0.036054           
         C38       1.0000    0.53734   0.43096   0.88120   Biso      1.000     C          -0.127943           
         C39       1.0000    0.36370   0.58330   0.29150   Biso      1.000     C          0.656313  
         C40       1.0000    0.00000   0.00000   0.56190   Biso      1.000     C          0.062566  
         C41       1.0000    0.00000   0.00000   0.78960   Biso      1.000     C          -0.095117           
         C42       1.0000    0.08330   0.86370   0.20850   Biso      1.000     C          0.656313  
         C43       1.0000    0.03734   0.93096   0.26730   Biso      1.000     C          -0.036054           
         C44       1.0000    0.03734   0.93096   0.38120   Biso      1.000     C          -0.127943           
         C45       1.0000    0.50000   0.00000   0.31190   Biso      1.000     C          0.062565  
         C46       1.0000    0.50000   0.00000   0.53960   Biso      1.000     C          -0.095117           
         C47       1.0000    0.91670   0.13630   0.20850   Biso      1.000     C          0.656313  
         C48       1.0000    0.50000   0.00000   0.96040   Biso      1.000     C          -0.095117           
         C49       1.0000    0.06904   0.96266   0.61880   Biso      1.000     C          -0.127943           
         C50       1.0000    0.96266   0.06904   0.38120   Biso      1.000     C          -0.127943           
         C51       1.0000    0.93096   0.03734   0.61880   Biso      1.000     C          -0.127943           
         C52       1.0000    0.56904   0.03734   0.13120   Biso      1.000     C          -0.127943           
         C53       1.0000    0.56904   0.03734   0.01730   Biso      1.000     C          -0.036055000000000004         
         C54       1.0000    0.63630   0.08330   0.95850   Biso      1.000     C          0.656313  
         C55       1.0000    0.00000   0.50000   0.46040   Biso      1.000     C          -0.095117           
         C56       1.0000    0.00000   0.50000   0.68810   Biso      1.000     C          0.062565  
         C57       1.0000    0.96266   0.06904   0.26730   Biso      1.000     C          -0.036054           
         C58       1.0000    0.56904   0.46266   0.23270   Biso      1.000     C          -0.036055000000000004         
         C59       1.0000    0.46266   0.56904   0.76730   Biso      1.000     C          -0.036055000000000004         
         C60       1.0000    0.41670   0.63630   0.70850   Biso      1.000     C          0.656313  
         C61       1.0000    0.00000   0.50000   0.03960   Biso      1.000     C          -0.095117           
         C62       1.0000    0.00000   0.50000   0.81190   Biso      1.000     C          0.062565  
         C63       1.0000    0.63630   0.41670   0.29150   Biso      1.000     C          0.656313  
         C64       1.0000    0.46266   0.56904   0.88120   Biso      1.000     C          -0.127943           
         H1        1.0000    0.37920   0.56540   0.07610   Biso      1.000     H          0.117127  
         H2        1.0000    0.62080   0.43460   0.07610   Biso      1.000     H          0.117127  
         H3        1.0000    0.06540   0.62080   0.82610   Biso      1.000     H          0.117127  
         H4        1.0000    0.81630   0.25000   0.62500   Biso      1.000     H          0.42318999999999996           
         H5        1.0000    0.31630   0.75000   0.12500   Biso      1.000     H          0.42318999999999996           
         H6        1.0000    0.68370   0.25000   0.12500   Biso      1.000     H          0.42318999999999996           
         H7        1.0000    0.18370   0.75000   0.62500   Biso      1.000     H          0.42318999999999996           
         H8        1.0000    0.75000   0.31630   0.87500   Biso      1.000     H          0.42318999999999996           
         H9        1.0000    0.25000   0.81630   0.37500   Biso      1.000     H          0.42318999999999996           
         H10       1.0000    0.75000   0.18370   0.37500   Biso      1.000     H          0.42318999999999996           
         H11       1.0000    0.25000   0.68370   0.87500   Biso      1.000     H          0.42318999999999996           
         H12       1.0000    0.00000   0.00000   0.12490   Biso      1.000     H          0.129423  
         H13       1.0000    0.50000   0.00000   0.87490   Biso      1.000     H          0.129423  
         H14       1.0000    0.00000   0.50000   0.37490   Biso      1.000     H          0.129423  
         H15       1.0000    0.00000   0.50000   0.12510   Biso      1.000     H          0.129423  
         H16       1.0000    0.50000   0.00000   0.62510   Biso      1.000     H          0.129423  
         H17       1.0000    0.00000   0.00000   0.87510   Biso      1.000     H          0.129423  
         H18       1.0000    0.12080   0.93460   0.57610   Biso      1.000     H          0.117127  
         H19       1.0000    0.50000   0.50000   0.62490   Biso      1.000     H          0.129423  
         H20       1.0000    0.50000   0.50000   0.37510   Biso      1.000     H          0.129423  
         H21       1.0000    0.93460   0.37920   0.82610   Biso      1.000     H          0.117127  
         H22       1.0000    0.87920   0.43460   0.67390   Biso      1.000     H          0.117127  
         H23       1.0000    0.12080   0.56540   0.67390   Biso      1.000     H          0.117127  
         H24       1.0000    0.62080   0.06540   0.17390   Biso      1.000     H          0.117127  
         H25       1.0000    0.43460   0.87920   0.32610   Biso      1.000     H          0.117127  
         H26       1.0000    0.43460   0.62080   0.92390   Biso      1.000     H          0.117127  
         H27       1.0000    0.56540   0.12080   0.32610   Biso      1.000     H          0.117127  
         H28       1.0000    0.93460   0.12080   0.42390   Biso      1.000     H          0.117127  
         H29       1.0000    0.37920   0.93460   0.17390   Biso      1.000     H          0.117127  
         H30       1.0000    0.87920   0.06540   0.57610   Biso      1.000     H          0.117127  
         H31       1.0000    0.06540   0.87920   0.42390   Biso      1.000     H          0.117127  
         H32       1.0000    0.56540   0.37920   0.92390   Biso      1.000     H          0.117127  
         In1       1.0000    0.31630   0.81630   0.75000   Biso      1.000     In          1.6323159999999999  
         In2       1.0000    0.81630   0.31630   0.25000   Biso      1.000     In          1.6323159999999999  
         In3       1.0000    0.68370   0.18370   0.75000   Biso      1.000     In          1.6323159999999999  
         In4       1.0000    0.18370   0.68370   0.25000   Biso      1.000     In          1.6323159999999999  
         In5       1.0000    0.81630   0.18370   0.00000   Biso      1.000     In          1.6323159999999999  
         In6       1.0000    0.18370   0.81630   0.00000   Biso      1.000     In          1.6323159999999999  
         In7       1.0000    0.68370   0.31630   0.50000   Biso      1.000     In          1.6323159999999999  
         In8       1.0000    0.31630   0.68370   0.50000   Biso      1.000     In          1.6323159999999999  
         O1        1.0000    0.11940   0.61400   0.36730   Biso      1.000     O          -0.587779           
         O2        1.0000    0.79090   0.40900   0.50080   Biso      1.000     O          -0.605422           
         O3        1.0000    0.88060   0.38600   0.36730   Biso      1.000     O          -0.587779           
         O4        1.0000    0.38060   0.88600   0.86730   Biso      1.000     O          -0.587779           
         O5        1.0000    0.20910   0.59100   0.50080   Biso      1.000     O          -0.605422           
         O6        1.0000    0.59100   0.29090   0.75080   Biso      1.000     O          -0.605422           
         O7        1.0000    0.88600   0.11940   0.11730   Biso      1.000     O          -0.587779           
         O8        1.0000    0.11400   0.88060   0.11730   Biso      1.000     O          -0.587779           
         O9        1.0000    0.61940   0.11400   0.86730   Biso      1.000     O          -0.587779           
         O10       1.0000    0.90900   0.20910   0.25080   Biso      1.000     O          -0.605422           
         O11       1.0000    0.40900   0.70910   0.75080   Biso      1.000     O          -0.605422           
         O12       1.0000    0.29090   0.90900   0.00080   Biso      1.000     O          -0.605422           
         O13       1.0000    0.38600   0.61940   0.61730   Biso      1.000     O          -0.587779           
         O14       1.0000    0.70910   0.09100   0.00080   Biso      1.000     O          -0.605422           
         O15       1.0000    0.09100   0.79090   0.25080   Biso      1.000     O          -0.605422           
         O16       1.0000    0.61940   0.38600   0.38270   Biso      1.000     O          -0.587779           
         O17       1.0000    0.88600   0.38060   0.13270   Biso      1.000     O          -0.587779           
         O18       1.0000    0.70910   0.40900   0.24920   Biso      1.000     O          -0.605422           
         O19       1.0000    0.38060   0.61400   0.38270   Biso      1.000     O          -0.587779           
         O20       1.0000    0.79090   0.09100   0.74920   Biso      1.000     O          -0.605422           
         O21       1.0000    0.88060   0.11400   0.88270   Biso      1.000     O          -0.587779           
         O22       1.0000    0.11940   0.88600   0.88270   Biso      1.000     O          -0.587779           
         O23       1.0000    0.20910   0.90900   0.74920   Biso      1.000     O          -0.605422           
         O24       1.0000    0.09100   0.70910   0.99920   Biso      1.000     O          -0.605422           
         O25       1.0000    0.11400   0.61940   0.13270   Biso      1.000     O          -0.587779           
         O26       1.0000    0.59100   0.20910   0.49920   Biso      1.000     O          -0.605422           
         O27       1.0000    0.75800   0.25000   0.62500   Biso      1.000     O          -0.9848600000000001           
         O28       1.0000    0.61400   0.11940   0.63270   Biso      1.000     O          -0.587779           
         O29       1.0000    0.25800   0.75000   0.12500   Biso      1.000     O          -0.9848600000000001           
         O30       1.0000    0.74200   0.25000   0.12500   Biso      1.000     O          -0.9848600000000001           
         O31       1.0000    0.40900   0.79090   0.49920   Biso      1.000     O          -0.605422           
         O32       1.0000    0.24200   0.75000   0.62500   Biso      1.000     O          -0.9848600000000001           
         O33       1.0000    0.38600   0.88060   0.63270   Biso      1.000     O          -0.587779           
         O34       1.0000    0.75000   0.25800   0.87500   Biso      1.000     O          -0.9848600000000001           
         O35       1.0000    0.29090   0.59100   0.24920   Biso      1.000     O          -0.605422           
         O36       1.0000    0.25000   0.75800   0.37500   Biso      1.000     O          -0.9848600000000001           
         O37       1.0000    0.90900   0.29090   0.99920   Biso      1.000     O          -0.605422           
         O38       1.0000    0.75000   0.24200   0.37500   Biso      1.000     O          -0.9848600000000001           
         O39       1.0000    0.25000   0.74200   0.87500   Biso      1.000     O          -0.9848600000000001           
         O40       1.0000    0.61400   0.38060   0.61730   Biso      1.000     O          -0.587779 