
##########################################################################
#               Crystallographic Information Format file
#               Produced by PyCifRW module
#
#  This is a CIF file.  CIF has been adopted by the International
#  Union of Crystallography as the standard for data archiving and
#  transmission.
#
#  For information on this file format, follow the CIF links at
#  http://www.iucr.org
##########################################################################

data_image0

_cell_length_a                          15.4923
_cell_length_b                          15.4923
_cell_length_c                          12.3105
_cell_angle_alpha                       90
_cell_angle_beta                        90
_cell_angle_gamma                       90
_symmetry_space_group_name_H-M          'P 1'
_symmetry_int_tables_number             1
loop_
  _symmetry_equiv_pos_as_xyz
         'x, y, z' 
loop_
  _atom_site_label
  _atom_site_occupancy
  _atom_site_fract_x
  _atom_site_fract_y
  _atom_site_fract_z
  _atom_site_thermal_displace_type
  _atom_site_B_iso_or_equiv
  _atom_site_type_symbol
  _atom_site_charge
         C1        1.0000    0.43122   0.53747   0.11858   Biso      1.000     C          -0.126591           
         C2        1.0000    0.06878   0.53747   0.63142   Biso      1.000     C          -0.126591           
         C3        1.0000    0.93122   0.03747   0.73240   Biso      1.000     C          -0.031779           
         C4        1.0000    0.00000   0.00000   0.43833   Biso      1.000     C          0.062426999999999996          
         C5        1.0000    0.00000   0.00000   0.21070   Biso      1.000     C          -0.094547           
         C6        1.0000    0.86440   0.41640   0.45900   Biso      1.000     C          0.6401319999999999  
         C7        1.0000    0.93122   0.46253   0.51760   Biso      1.000     C          -0.031779           
         C8        1.0000    0.93122   0.46253   0.63142   Biso      1.000     C          -0.126591           
         C9        1.0000    0.43122   0.53747   0.23240   Biso      1.000     C          -0.031779           
         C10       1.0000    0.50000   0.50000   0.93833   Biso      1.000     C          0.062426999999999996          
         C11       1.0000    0.50000   0.50000   0.71070   Biso      1.000     C          -0.094547           
         C12       1.0000    0.36440   0.91640   0.95900   Biso      1.000     C          0.6401319999999999  
         C13       1.0000    0.43122   0.96253   0.01760   Biso      1.000     C          -0.031779           
         C14       1.0000    0.43122   0.96253   0.13142   Biso      1.000     C          -0.126591           
         C15       1.0000    0.86440   0.08360   0.79100   Biso      1.000     C          0.6401319999999999  
         C16       1.0000    0.56878   0.46253   0.11858   Biso      1.000     C          -0.126591           
         C17       1.0000    0.91640   0.36440   0.04100   Biso      1.000     C          0.6401319999999999  
         C18       1.0000    0.96253   0.43122   0.98240   Biso      1.000     C          -0.031779           
         C19       1.0000    0.96253   0.43122   0.86858   Biso      1.000     C          -0.126591           
         C20       1.0000    0.50000   0.50000   0.06167   Biso      1.000     C          0.062426  
         C21       1.0000    0.03747   0.56878   0.86858   Biso      1.000     C          -0.126591           
         C22       1.0000    0.03747   0.56878   0.98240   Biso      1.000     C          -0.031779           
         C23       1.0000    0.41640   0.86440   0.54100   Biso      1.000     C          0.6401319999999999  
         C24       1.0000    0.46253   0.93122   0.48240   Biso      1.000     C          -0.031779           
         C25       1.0000    0.46253   0.93122   0.36858   Biso      1.000     C          -0.126591           
         C26       1.0000    0.08360   0.63560   0.04100   Biso      1.000     C          0.6401319999999999  
         C27       1.0000    0.13560   0.91640   0.79100   Biso      1.000     C          0.6401319999999999  
         C28       1.0000    0.06878   0.96253   0.73240   Biso      1.000     C          -0.031779           
         C29       1.0000    0.58360   0.13560   0.54100   Biso      1.000     C          0.6401319999999999  
         C30       1.0000    0.53747   0.06878   0.48240   Biso      1.000     C          -0.031779           
         C31       1.0000    0.06878   0.53747   0.51760   Biso      1.000     C          -0.031779           
         C32       1.0000    0.53747   0.06878   0.36858   Biso      1.000     C          -0.126591           
         C33       1.0000    0.13560   0.58360   0.45900   Biso      1.000     C          0.6401319999999999  
         C34       1.0000    0.50000   0.00000   0.18833   Biso      1.000     C          0.062426999999999996          
         C35       1.0000    0.50000   0.50000   0.28930   Biso      1.000     C          -0.094547           
         C36       1.0000    0.58360   0.36440   0.70900   Biso      1.000     C          0.6401319999999999  
         C37       1.0000    0.53747   0.43122   0.76760   Biso      1.000     C          -0.031779           
         C38       1.0000    0.53747   0.43122   0.88142   Biso      1.000     C          -0.126592           
         C39       1.0000    0.36440   0.58360   0.29100   Biso      1.000     C          0.6401319999999999  
         C40       1.0000    0.00000   0.00000   0.56167   Biso      1.000     C          0.062426999999999996          
         C41       1.0000    0.00000   0.00000   0.78930   Biso      1.000     C          -0.094547           
         C42       1.0000    0.08360   0.86440   0.20900   Biso      1.000     C          0.6401319999999999  
         C43       1.0000    0.03747   0.93122   0.26760   Biso      1.000     C          -0.031779           
         C44       1.0000    0.03747   0.93122   0.38142   Biso      1.000     C          -0.126592           
         C45       1.0000    0.50000   0.00000   0.31167   Biso      1.000     C          0.062426  
         C46       1.0000    0.50000   0.00000   0.53930   Biso      1.000     C          -0.094547           
         C47       1.0000    0.91640   0.13560   0.20900   Biso      1.000     C          0.6401319999999999  
         C48       1.0000    0.50000   0.00000   0.96070   Biso      1.000     C          -0.094547           
         C49       1.0000    0.06878   0.96253   0.61858   Biso      1.000     C          -0.126592           
         C50       1.0000    0.96253   0.06878   0.38142   Biso      1.000     C          -0.126592           
         C51       1.0000    0.93122   0.03747   0.61858   Biso      1.000     C          -0.126592           
         C52       1.0000    0.56878   0.03747   0.13142   Biso      1.000     C          -0.126592           
         C53       1.0000    0.56878   0.03747   0.01760   Biso      1.000     C          -0.031779           
         C54       1.0000    0.63560   0.08360   0.95900   Biso      1.000     C          0.6401319999999999  
         C55       1.0000    0.00000   0.50000   0.46070   Biso      1.000     C          -0.094547           
         C56       1.0000    0.00000   0.50000   0.68833   Biso      1.000     C          0.062426  
         C57       1.0000    0.96253   0.06878   0.26760   Biso      1.000     C          -0.031779           
         C58       1.0000    0.56878   0.46253   0.23240   Biso      1.000     C          -0.031779           
         C59       1.0000    0.46253   0.56878   0.76760   Biso      1.000     C          -0.031779           
         C60       1.0000    0.41640   0.63560   0.70900   Biso      1.000     C          0.6401319999999999  
         C61       1.0000    0.00000   0.50000   0.03930   Biso      1.000     C          -0.094547           
         C62       1.0000    0.00000   0.50000   0.81167   Biso      1.000     C          0.062426  
         C63       1.0000    0.63560   0.41640   0.29100   Biso      1.000     C          0.6401319999999999  
         C64       1.0000    0.46253   0.56878   0.88142   Biso      1.000     C          -0.126592           
         H1        1.0000    0.37970   0.56550   0.07590   Biso      1.000     H          0.118323  
         H2        1.0000    0.62030   0.43450   0.07590   Biso      1.000     H          0.118323  
         H3        1.0000    0.06550   0.62030   0.82590   Biso      1.000     H          0.118323  
         H4        1.0000    0.81850   0.25000   0.62500   Biso      1.000     H          0.42565299999999995           
         H5        1.0000    0.31850   0.75000   0.12500   Biso      1.000     H          0.42565299999999995           
         H6        1.0000    0.68150   0.25000   0.12500   Biso      1.000     H          0.42565299999999995           
         H7        1.0000    0.18150   0.75000   0.62500   Biso      1.000     H          0.42565299999999995           
         H8        1.0000    0.75000   0.31850   0.87500   Biso      1.000     H          0.42565299999999995           
         H9        1.0000    0.25000   0.81850   0.37500   Biso      1.000     H          0.42565299999999995           
         H10       1.0000    0.75000   0.18150   0.37500   Biso      1.000     H          0.42565299999999995           
         H11       1.0000    0.25000   0.68150   0.87500   Biso      1.000     H          0.42565299999999995           
         H12       1.0000    0.00000   0.00000   0.12540   Biso      1.000     H          0.131599  
         H13       1.0000    0.50000   0.00000   0.87540   Biso      1.000     H          0.131599  
         H14       1.0000    0.00000   0.50000   0.37540   Biso      1.000     H          0.131599  
         H15       1.0000    0.00000   0.50000   0.12460   Biso      1.000     H          0.131599  
         H16       1.0000    0.50000   0.00000   0.62460   Biso      1.000     H          0.131599  
         H17       1.0000    0.00000   0.00000   0.87460   Biso      1.000     H          0.131599  
         H18       1.0000    0.12030   0.93450   0.57590   Biso      1.000     H          0.118323  
         H19       1.0000    0.50000   0.50000   0.62540   Biso      1.000     H          0.131599  
         H20       1.0000    0.50000   0.50000   0.37460   Biso      1.000     H          0.131599  
         H21       1.0000    0.93450   0.37970   0.82590   Biso      1.000     H          0.118323  
         H22       1.0000    0.87970   0.43450   0.67410   Biso      1.000     H          0.118323  
         H23       1.0000    0.12030   0.56550   0.67410   Biso      1.000     H          0.118323  
         H24       1.0000    0.62030   0.06550   0.17410   Biso      1.000     H          0.118323  
         H25       1.0000    0.43450   0.87970   0.32590   Biso      1.000     H          0.118323  
         H26       1.0000    0.43450   0.62030   0.92410   Biso      1.000     H          0.118323  
         H27       1.0000    0.56550   0.12030   0.32590   Biso      1.000     H          0.118323  
         H28       1.0000    0.93450   0.12030   0.42410   Biso      1.000     H          0.118323  
         H29       1.0000    0.37970   0.93450   0.17410   Biso      1.000     H          0.118323  
         H30       1.0000    0.87970   0.06550   0.57590   Biso      1.000     H          0.118323  
         H31       1.0000    0.06550   0.87970   0.42410   Biso      1.000     H          0.118323  
         H32       1.0000    0.56550   0.37970   0.92410   Biso      1.000     H          0.118323  
         In1       1.0000    0.31600   0.81600   0.75000   Biso      1.000     In          1.612032  
         In2       1.0000    0.81600   0.31600   0.25000   Biso      1.000     In          1.612032  
         In3       1.0000    0.68400   0.18400   0.75000   Biso      1.000     In          1.612032  
         In4       1.0000    0.18400   0.68400   0.25000   Biso      1.000     In          1.612032  
         In5       1.0000    0.81600   0.18400   0.00000   Biso      1.000     In          1.612032  
         In6       1.0000    0.18400   0.81600   0.00000   Biso      1.000     In          1.612032  
         In7       1.0000    0.68400   0.31600   0.50000   Biso      1.000     In          1.612032  
         In8       1.0000    0.31600   0.68400   0.50000   Biso      1.000     In          1.612032  
         O1        1.0000    0.11780   0.61250   0.36580   Biso      1.000     O          -0.57796  
         O2        1.0000    0.79180   0.40740   0.50400   Biso      1.000     O          -0.598344           
         O3        1.0000    0.88220   0.38750   0.36580   Biso      1.000     O          -0.57796  
         O4        1.0000    0.38220   0.88750   0.86580   Biso      1.000     O          -0.57796  
         O5        1.0000    0.20820   0.59260   0.50400   Biso      1.000     O          -0.598344           
         O6        1.0000    0.59260   0.29180   0.75400   Biso      1.000     O          -0.598344           
         O7        1.0000    0.88750   0.11780   0.11580   Biso      1.000     O          -0.57796  
         O8        1.0000    0.11250   0.88220   0.11580   Biso      1.000     O          -0.57796  
         O9        1.0000    0.61780   0.11250   0.86580   Biso      1.000     O          -0.57796  
         O10       1.0000    0.90740   0.20820   0.25400   Biso      1.000     O          -0.598344           
         O11       1.0000    0.40740   0.70820   0.75400   Biso      1.000     O          -0.598344           
         O12       1.0000    0.29180   0.90740   0.00400   Biso      1.000     O          -0.598344           
         O13       1.0000    0.38750   0.61780   0.61580   Biso      1.000     O          -0.57796  
         O14       1.0000    0.70820   0.09260   0.00400   Biso      1.000     O          -0.598344           
         O15       1.0000    0.09260   0.79180   0.25400   Biso      1.000     O          -0.598344           
         O16       1.0000    0.61780   0.38750   0.38420   Biso      1.000     O          -0.57796  
         O17       1.0000    0.88750   0.38220   0.13420   Biso      1.000     O          -0.57796  
         O18       1.0000    0.70820   0.40740   0.24600   Biso      1.000     O          -0.598344           
         O19       1.0000    0.38220   0.61250   0.38420   Biso      1.000     O          -0.57796  
         O20       1.0000    0.79180   0.09260   0.74600   Biso      1.000     O          -0.598344           
         O21       1.0000    0.88220   0.11250   0.88420   Biso      1.000     O          -0.57796  
         O22       1.0000    0.11780   0.88750   0.88420   Biso      1.000     O          -0.57796  
         O23       1.0000    0.20820   0.90740   0.74600   Biso      1.000     O          -0.598344           
         O24       1.0000    0.09260   0.70820   0.99600   Biso      1.000     O          -0.598344           
         O25       1.0000    0.11250   0.61780   0.13420   Biso      1.000     O          -0.57796  
         O26       1.0000    0.59260   0.20820   0.49600   Biso      1.000     O          -0.598344           
         O27       1.0000    0.76040   0.25000   0.62500   Biso      1.000     O          -0.9847239999999999           
         O28       1.0000    0.61250   0.11780   0.63420   Biso      1.000     O          -0.57796  
         O29       1.0000    0.26040   0.75000   0.12500   Biso      1.000     O          -0.9847239999999999           
         O30       1.0000    0.73960   0.25000   0.12500   Biso      1.000     O          -0.9847239999999999           
         O31       1.0000    0.40740   0.79180   0.49600   Biso      1.000     O          -0.598344           
         O32       1.0000    0.23960   0.75000   0.62500   Biso      1.000     O          -0.9847239999999999           
         O33       1.0000    0.38750   0.88220   0.63420   Biso      1.000     O          -0.57796  
         O34       1.0000    0.75000   0.26040   0.87500   Biso      1.000     O          -0.9847239999999999           
         O35       1.0000    0.29180   0.59260   0.24600   Biso      1.000     O          -0.598344           
         O36       1.0000    0.25000   0.76040   0.37500   Biso      1.000     O          -0.9847239999999999           
         O37       1.0000    0.90740   0.29180   0.99600   Biso      1.000     O          -0.598344           
         O38       1.0000    0.75000   0.23960   0.37500   Biso      1.000     O          -0.9847239999999999           
         O39       1.0000    0.25000   0.73960   0.87500   Biso      1.000     O          -0.9847239999999999           
         O40       1.0000    0.61250   0.38220   0.61580   Biso      1.000     O          -0.57796 