
##########################################################################
#               Crystallographic Information Format file
#               Produced by PyCifRW module
#
#  This is a CIF file.  CIF has been adopted by the International
#  Union of Crystallography as the standard for data archiving and
#  transmission.
#
#  For information on this file format, follow the CIF links at
#  http://www.iucr.org
##########################################################################

data_image0

_cell_length_a                          15.4979
_cell_length_b                          15.4979
_cell_length_c                          12.3052
_cell_angle_alpha                       90
_cell_angle_beta                        90
_cell_angle_gamma                       90
_symmetry_space_group_name_H-M          'P 1'
_symmetry_int_tables_number             1
loop_
  _symmetry_equiv_pos_as_xyz
         'x, y, z' 
loop_
  _atom_site_label
  _atom_site_occupancy
  _atom_site_fract_x
  _atom_site_fract_y
  _atom_site_fract_z
  _atom_site_thermal_displace_type
  _atom_site_B_iso_or_equiv
  _atom_site_type_symbol
  _atom_site_charge
         C1        1.0000    0.43149   0.54000   0.11590   Biso      1.000     C          -0.139735           
         C2        1.0000    0.06851   0.54000   0.63410   Biso      1.000     C          -0.139735           
         C3        1.0000    0.93149   0.04000   0.73130   Biso      1.000     C          -0.041763           
         C4        1.0000    0.00000   0.00000   0.44180   Biso      1.000     C          0.07208300000000001           
         C5        1.0000    0.00000   0.00000   0.21100   Biso      1.000     C          -0.103076           
         C6        1.0000    0.86260   0.41720   0.45980   Biso      1.000     C          0.66585   
         C7        1.0000    0.93149   0.46000   0.51870   Biso      1.000     C          -0.041763           
         C8        1.0000    0.93149   0.46000   0.63410   Biso      1.000     C          -0.139735           
         C9        1.0000    0.43149   0.54000   0.23130   Biso      1.000     C          -0.041763           
         C10       1.0000    0.50000   0.50000   0.94180   Biso      1.000     C          0.07208300000000001           
         C11       1.0000    0.50000   0.50000   0.71100   Biso      1.000     C          -0.103076           
         C12       1.0000    0.36260   0.91720   0.95980   Biso      1.000     C          0.66585   
         C13       1.0000    0.43149   0.96000   0.01870   Biso      1.000     C          -0.041763           
         C14       1.0000    0.43149   0.96000   0.13410   Biso      1.000     C          -0.139735           
         C15       1.0000    0.86260   0.08280   0.79020   Biso      1.000     C          0.66585   
         C16       1.0000    0.56851   0.46000   0.11590   Biso      1.000     C          -0.139735           
         C17       1.0000    0.91720   0.36260   0.04020   Biso      1.000     C          0.66585   
         C18       1.0000    0.96000   0.43149   0.98130   Biso      1.000     C          -0.041763           
         C19       1.0000    0.96000   0.43149   0.86590   Biso      1.000     C          -0.139735           
         C20       1.0000    0.50000   0.50000   0.05820   Biso      1.000     C          0.07208300000000001           
         C21       1.0000    0.04000   0.56851   0.86590   Biso      1.000     C          -0.139735           
         C22       1.0000    0.04000   0.56851   0.98130   Biso      1.000     C          -0.041763           
         C23       1.0000    0.41720   0.86260   0.54020   Biso      1.000     C          0.66585   
         C24       1.0000    0.46000   0.93149   0.48130   Biso      1.000     C          -0.041763           
         C25       1.0000    0.46000   0.93149   0.36590   Biso      1.000     C          -0.139735           
         C26       1.0000    0.08280   0.63740   0.04020   Biso      1.000     C          0.66585   
         C27       1.0000    0.13740   0.91720   0.79020   Biso      1.000     C          0.66585   
         C28       1.0000    0.06851   0.96000   0.73130   Biso      1.000     C          -0.041763           
         C29       1.0000    0.58280   0.13740   0.54020   Biso      1.000     C          0.66585   
         C30       1.0000    0.54000   0.06851   0.48130   Biso      1.000     C          -0.041763           
         C31       1.0000    0.06851   0.54000   0.51870   Biso      1.000     C          -0.041763           
         C32       1.0000    0.54000   0.06851   0.36590   Biso      1.000     C          -0.139735           
         C33       1.0000    0.13740   0.58280   0.45980   Biso      1.000     C          0.66585   
         C34       1.0000    0.50000   0.00000   0.19180   Biso      1.000     C          0.07208300000000001           
         C35       1.0000    0.50000   0.50000   0.28900   Biso      1.000     C          -0.103076           
         C36       1.0000    0.58280   0.36260   0.70980   Biso      1.000     C          0.66585   
         C37       1.0000    0.54000   0.43149   0.76870   Biso      1.000     C          -0.041763           
         C38       1.0000    0.54000   0.43149   0.88410   Biso      1.000     C          -0.139736           
         C39       1.0000    0.36260   0.58280   0.29020   Biso      1.000     C          0.66585   
         C40       1.0000    0.00000   0.00000   0.55820   Biso      1.000     C          0.07208300000000001           
         C41       1.0000    0.00000   0.00000   0.78900   Biso      1.000     C          -0.103076           
         C42       1.0000    0.08280   0.86260   0.20980   Biso      1.000     C          0.66585   
         C43       1.0000    0.04000   0.93149   0.26870   Biso      1.000     C          -0.041763           
         C44       1.0000    0.04000   0.93149   0.38410   Biso      1.000     C          -0.139736           
         C45       1.0000    0.50000   0.00000   0.30820   Biso      1.000     C          0.07208300000000001           
         C46       1.0000    0.50000   0.00000   0.53900   Biso      1.000     C          -0.103076           
         C47       1.0000    0.91720   0.13740   0.20980   Biso      1.000     C          0.66585   
         C48       1.0000    0.50000   0.00000   0.96100   Biso      1.000     C          -0.103076           
         C49       1.0000    0.06851   0.96000   0.61590   Biso      1.000     C          -0.139736           
         C50       1.0000    0.96000   0.06851   0.38410   Biso      1.000     C          -0.139736           
         C51       1.0000    0.93149   0.04000   0.61590   Biso      1.000     C          -0.139736           
         C52       1.0000    0.56851   0.04000   0.13410   Biso      1.000     C          -0.139736           
         C53       1.0000    0.56851   0.04000   0.01870   Biso      1.000     C          -0.041763           
         C54       1.0000    0.63740   0.08280   0.95980   Biso      1.000     C          0.66585   
         C55       1.0000    0.00000   0.50000   0.46100   Biso      1.000     C          -0.103076           
         C56       1.0000    0.00000   0.50000   0.69180   Biso      1.000     C          0.07208300000000001           
         C57       1.0000    0.96000   0.06851   0.26870   Biso      1.000     C          -0.041763           
         C58       1.0000    0.56851   0.46000   0.23130   Biso      1.000     C          -0.041763           
         C59       1.0000    0.46000   0.56851   0.76870   Biso      1.000     C          -0.041763           
         C60       1.0000    0.41720   0.63740   0.70980   Biso      1.000     C          0.66585   
         C61       1.0000    0.00000   0.50000   0.03900   Biso      1.000     C          -0.103076           
         C62       1.0000    0.00000   0.50000   0.80820   Biso      1.000     C          0.07208300000000001           
         C63       1.0000    0.63740   0.41720   0.29020   Biso      1.000     C          0.66585   
         C64       1.0000    0.46000   0.56851   0.88410   Biso      1.000     C          -0.139736           
         H1        1.0000    0.38330   0.56810   0.07540   Biso      1.000     H          0.123776  
         H2        1.0000    0.61670   0.43190   0.07540   Biso      1.000     H          0.123776  
         H3        1.0000    0.06810   0.61670   0.82540   Biso      1.000     H          0.123776  
         H4        1.0000    0.81380   0.25000   0.62500   Biso      1.000     H          0.42171499999999995           
         H5        1.0000    0.31380   0.75000   0.12500   Biso      1.000     H          0.42171499999999995           
         H6        1.0000    0.68620   0.25000   0.12500   Biso      1.000     H          0.42171499999999995           
         H7        1.0000    0.18620   0.75000   0.62500   Biso      1.000     H          0.42171499999999995           
         H8        1.0000    0.75000   0.31380   0.87500   Biso      1.000     H          0.42171499999999995           
         H9        1.0000    0.25000   0.81380   0.37500   Biso      1.000     H          0.42171499999999995           
         H10       1.0000    0.75000   0.18620   0.37500   Biso      1.000     H          0.42171499999999995           
         H11       1.0000    0.25000   0.68620   0.87500   Biso      1.000     H          0.42171499999999995           
         H12       1.0000    0.00000   0.00000   0.12990   Biso      1.000     H          0.130492  
         H13       1.0000    0.50000   0.00000   0.87990   Biso      1.000     H          0.130492  
         H14       1.0000    0.00000   0.50000   0.37990   Biso      1.000     H          0.130492  
         H15       1.0000    0.00000   0.50000   0.12010   Biso      1.000     H          0.130492  
         H16       1.0000    0.50000   0.00000   0.62010   Biso      1.000     H          0.130492  
         H17       1.0000    0.00000   0.00000   0.87010   Biso      1.000     H          0.130492  
         H18       1.0000    0.11670   0.93190   0.57540   Biso      1.000     H          0.123776  
         H19       1.0000    0.50000   0.50000   0.62990   Biso      1.000     H          0.130492  
         H20       1.0000    0.50000   0.50000   0.37010   Biso      1.000     H          0.130492  
         H21       1.0000    0.93190   0.38330   0.82540   Biso      1.000     H          0.123776  
         H22       1.0000    0.88330   0.43190   0.67460   Biso      1.000     H          0.123776  
         H23       1.0000    0.11670   0.56810   0.67460   Biso      1.000     H          0.123776  
         H24       1.0000    0.61670   0.06810   0.17460   Biso      1.000     H          0.123776  
         H25       1.0000    0.43190   0.88330   0.32540   Biso      1.000     H          0.123776  
         H26       1.0000    0.43190   0.61670   0.92460   Biso      1.000     H          0.123776  
         H27       1.0000    0.56810   0.11670   0.32540   Biso      1.000     H          0.123776  
         H28       1.0000    0.93190   0.11670   0.42460   Biso      1.000     H          0.123776  
         H29       1.0000    0.38330   0.93190   0.17460   Biso      1.000     H          0.123776  
         H30       1.0000    0.88330   0.06810   0.57540   Biso      1.000     H          0.123776  
         H31       1.0000    0.06810   0.88330   0.42460   Biso      1.000     H          0.123776  
         H32       1.0000    0.56810   0.38330   0.92460   Biso      1.000     H          0.123776  
         In1       1.0000    0.31950   0.81950   0.75000   Biso      1.000     In          1.63091   
         In2       1.0000    0.81950   0.31950   0.25000   Biso      1.000     In          1.63091   
         In3       1.0000    0.68050   0.18050   0.75000   Biso      1.000     In          1.63091   
         In4       1.0000    0.18050   0.68050   0.25000   Biso      1.000     In          1.63091   
         In5       1.0000    0.81950   0.18050   0.00000   Biso      1.000     In          1.63091   
         In6       1.0000    0.18050   0.81950   0.00000   Biso      1.000     In          1.63091   
         In7       1.0000    0.68050   0.31950   0.50000   Biso      1.000     In          1.63091   
         In8       1.0000    0.31950   0.68050   0.50000   Biso      1.000     In          1.63091   
         O1        1.0000    0.12270   0.60820   0.36670   Biso      1.000     O          -0.5902569999999999           
         O2        1.0000    0.79240   0.40820   0.50530   Biso      1.000     O          -0.5997359999999999           
         O3        1.0000    0.87730   0.39180   0.36670   Biso      1.000     O          -0.5902569999999999           
         O4        1.0000    0.37730   0.89180   0.86670   Biso      1.000     O          -0.590256           
         O5        1.0000    0.20760   0.59180   0.50530   Biso      1.000     O          -0.599735           
         O6        1.0000    0.59180   0.29240   0.75530   Biso      1.000     O          -0.599735           
         O7        1.0000    0.89180   0.12270   0.11670   Biso      1.000     O          -0.590256           
         O8        1.0000    0.10820   0.87730   0.11670   Biso      1.000     O          -0.5902569999999999           
         O9        1.0000    0.62270   0.10820   0.86670   Biso      1.000     O          -0.5902569999999999           
         O10       1.0000    0.90820   0.20760   0.25530   Biso      1.000     O          -0.5997359999999999           
         O11       1.0000    0.40820   0.70760   0.75530   Biso      1.000     O          -0.599735           
         O12       1.0000    0.29240   0.90820   0.00530   Biso      1.000     O          -0.5997359999999999           
         O13       1.0000    0.39180   0.62270   0.61670   Biso      1.000     O          -0.5902569999999999           
         O14       1.0000    0.70760   0.09180   0.00530   Biso      1.000     O          -0.599735           
         O15       1.0000    0.09180   0.79240   0.25530   Biso      1.000     O          -0.599735           
         O16       1.0000    0.62270   0.39180   0.38330   Biso      1.000     O          -0.5902569999999999           
         O17       1.0000    0.89180   0.37730   0.13330   Biso      1.000     O          -0.5902569999999999           
         O18       1.0000    0.70760   0.40820   0.24470   Biso      1.000     O          -0.5997359999999999           
         O19       1.0000    0.37730   0.60820   0.38330   Biso      1.000     O          -0.590256           
         O20       1.0000    0.79240   0.09180   0.74470   Biso      1.000     O          -0.599735           
         O21       1.0000    0.87730   0.10820   0.88330   Biso      1.000     O          -0.590256           
         O22       1.0000    0.12270   0.89180   0.88330   Biso      1.000     O          -0.5902569999999999           
         O23       1.0000    0.20760   0.90820   0.74470   Biso      1.000     O          -0.599735           
         O24       1.0000    0.09180   0.70760   0.99470   Biso      1.000     O          -0.5997359999999999           
         O25       1.0000    0.10820   0.62270   0.13330   Biso      1.000     O          -0.590256           
         O26       1.0000    0.59180   0.20760   0.49470   Biso      1.000     O          -0.599735           
         O27       1.0000    0.75570   0.25000   0.62500   Biso      1.000     O          -0.988395           
         O28       1.0000    0.60820   0.12270   0.63330   Biso      1.000     O          -0.590256           
         O29       1.0000    0.25570   0.75000   0.12500   Biso      1.000     O          -0.988395           
         O30       1.0000    0.74430   0.25000   0.12500   Biso      1.000     O          -0.988395           
         O31       1.0000    0.40820   0.79240   0.49470   Biso      1.000     O          -0.599735           
         O32       1.0000    0.24430   0.75000   0.62500   Biso      1.000     O          -0.988395           
         O33       1.0000    0.39180   0.87730   0.63330   Biso      1.000     O          -0.590256           
         O34       1.0000    0.75000   0.25570   0.87500   Biso      1.000     O          -0.988395           
         O35       1.0000    0.29240   0.59180   0.24470   Biso      1.000     O          -0.599735           
         O36       1.0000    0.25000   0.75570   0.37500   Biso      1.000     O          -0.988395           
         O37       1.0000    0.90820   0.29240   0.99470   Biso      1.000     O          -0.599735           
         O38       1.0000    0.75000   0.24430   0.37500   Biso      1.000     O          -0.988395           
         O39       1.0000    0.25000   0.74430   0.87500   Biso      1.000     O          -0.988395           
         O40       1.0000    0.60820   0.37730   0.61670   Biso      1.000     O          -0.5902569999999999 