
##########################################################################
#               Crystallographic Information Format file
#               Produced by PyCifRW module
#
#  This is a CIF file.  CIF has been adopted by the International
#  Union of Crystallography as the standard for data archiving and
#  transmission.
#
#  For information on this file format, follow the CIF links at
#  http://www.iucr.org
##########################################################################

data_image0

_cell_length_a                          15.4828
_cell_length_b                          15.4828
_cell_length_c                          12.3009
_cell_angle_alpha                       90
_cell_angle_beta                        90
_cell_angle_gamma                       90
_symmetry_space_group_name_H-M          'P 1'
_symmetry_int_tables_number             1
loop_
  _symmetry_equiv_pos_as_xyz
         'x, y, z' 
loop_
  _atom_site_label
  _atom_site_occupancy
  _atom_site_fract_x
  _atom_site_fract_y
  _atom_site_fract_z
  _atom_site_thermal_displace_type
  _atom_site_B_iso_or_equiv
  _atom_site_type_symbol
  _atom_site_charge
         C1        1.0000    0.43240   0.54161   0.11650   Biso      1.000     C          -0.134893           
         C2        1.0000    0.06760   0.54161   0.63350   Biso      1.000     C          -0.134893           
         C3        1.0000    0.93240   0.04161   0.73190   Biso      1.000     C          -0.038333           
         C4        1.0000    0.00000   0.00000   0.44120   Biso      1.000     C          0.069515  
         C5        1.0000    0.00000   0.00000   0.21040   Biso      1.000     C          -0.099837           
         C6        1.0000    0.86370   0.41520   0.45920   Biso      1.000     C          0.6511680000000001  
         C7        1.0000    0.93240   0.45839   0.51810   Biso      1.000     C          -0.038333           
         C8        1.0000    0.93240   0.45839   0.63350   Biso      1.000     C          -0.134893           
         C9        1.0000    0.43240   0.54161   0.23190   Biso      1.000     C          -0.038333           
         C10       1.0000    0.50000   0.50000   0.94120   Biso      1.000     C          0.069515  
         C11       1.0000    0.50000   0.50000   0.71040   Biso      1.000     C          -0.099837           
         C12       1.0000    0.36370   0.91520   0.95920   Biso      1.000     C          0.6511680000000001  
         C13       1.0000    0.43240   0.95839   0.01810   Biso      1.000     C          -0.038333           
         C14       1.0000    0.43240   0.95839   0.13350   Biso      1.000     C          -0.134893           
         C15       1.0000    0.86370   0.08480   0.79080   Biso      1.000     C          0.6511680000000001  
         C16       1.0000    0.56760   0.45839   0.11650   Biso      1.000     C          -0.134893           
         C17       1.0000    0.91520   0.36370   0.04080   Biso      1.000     C          0.6511680000000001  
         C18       1.0000    0.95839   0.43240   0.98190   Biso      1.000     C          -0.038333           
         C19       1.0000    0.95839   0.43240   0.86650   Biso      1.000     C          -0.134893           
         C20       1.0000    0.50000   0.50000   0.05880   Biso      1.000     C          0.06951399999999999           
         C21       1.0000    0.04161   0.56760   0.86650   Biso      1.000     C          -0.134893           
         C22       1.0000    0.04161   0.56760   0.98190   Biso      1.000     C          -0.038333           
         C23       1.0000    0.41520   0.86370   0.54080   Biso      1.000     C          0.6511680000000001  
         C24       1.0000    0.45839   0.93240   0.48190   Biso      1.000     C          -0.038333           
         C25       1.0000    0.45839   0.93240   0.36650   Biso      1.000     C          -0.134893           
         C26       1.0000    0.08480   0.63630   0.04080   Biso      1.000     C          0.6511680000000001  
         C27       1.0000    0.13630   0.91520   0.79080   Biso      1.000     C          0.6511680000000001  
         C28       1.0000    0.06760   0.95839   0.73190   Biso      1.000     C          -0.038333           
         C29       1.0000    0.58480   0.13630   0.54080   Biso      1.000     C          0.6511680000000001  
         C30       1.0000    0.54161   0.06760   0.48190   Biso      1.000     C          -0.038333           
         C31       1.0000    0.06760   0.54161   0.51810   Biso      1.000     C          -0.038333           
         C32       1.0000    0.54161   0.06760   0.36650   Biso      1.000     C          -0.134893           
         C33       1.0000    0.13630   0.58480   0.45920   Biso      1.000     C          0.6511680000000001  
         C34       1.0000    0.50000   0.00000   0.19120   Biso      1.000     C          0.069515  
         C35       1.0000    0.50000   0.50000   0.28960   Biso      1.000     C          -0.099837           
         C36       1.0000    0.58480   0.36370   0.70920   Biso      1.000     C          0.6511680000000001  
         C37       1.0000    0.54161   0.43240   0.76810   Biso      1.000     C          -0.038333           
         C38       1.0000    0.54161   0.43240   0.88350   Biso      1.000     C          -0.134893           
         C39       1.0000    0.36370   0.58480   0.29080   Biso      1.000     C          0.6511680000000001  
         C40       1.0000    0.00000   0.00000   0.55880   Biso      1.000     C          0.069515  
         C41       1.0000    0.00000   0.00000   0.78960   Biso      1.000     C          -0.099837           
         C42       1.0000    0.08480   0.86370   0.20920   Biso      1.000     C          0.6511680000000001  
         C43       1.0000    0.04161   0.93240   0.26810   Biso      1.000     C          -0.038333           
         C44       1.0000    0.04161   0.93240   0.38350   Biso      1.000     C          -0.134893           
         C45       1.0000    0.50000   0.00000   0.30880   Biso      1.000     C          0.06951399999999999           
         C46       1.0000    0.50000   0.00000   0.53960   Biso      1.000     C          -0.099837           
         C47       1.0000    0.91520   0.13630   0.20920   Biso      1.000     C          0.6511680000000001  
         C48       1.0000    0.50000   0.00000   0.96040   Biso      1.000     C          -0.099837           
         C49       1.0000    0.06760   0.95839   0.61650   Biso      1.000     C          -0.134893           
         C50       1.0000    0.95839   0.06760   0.38350   Biso      1.000     C          -0.134893           
         C51       1.0000    0.93240   0.04161   0.61650   Biso      1.000     C          -0.134893           
         C52       1.0000    0.56760   0.04161   0.13350   Biso      1.000     C          -0.134893           
         C53       1.0000    0.56760   0.04161   0.01810   Biso      1.000     C          -0.038333           
         C54       1.0000    0.63630   0.08480   0.95920   Biso      1.000     C          0.6511680000000001  
         C55       1.0000    0.00000   0.50000   0.46040   Biso      1.000     C          -0.099837           
         C56       1.0000    0.00000   0.50000   0.69120   Biso      1.000     C          0.069515  
         C57       1.0000    0.95839   0.06760   0.26810   Biso      1.000     C          -0.038333           
         C58       1.0000    0.56760   0.45839   0.23190   Biso      1.000     C          -0.038333           
         C59       1.0000    0.45839   0.56760   0.76810   Biso      1.000     C          -0.038333           
         C60       1.0000    0.41520   0.63630   0.70920   Biso      1.000     C          0.6511680000000001  
         C61       1.0000    0.00000   0.50000   0.03960   Biso      1.000     C          -0.099837           
         C62       1.0000    0.00000   0.50000   0.80880   Biso      1.000     C          0.06951399999999999           
         C63       1.0000    0.63630   0.41520   0.29080   Biso      1.000     C          0.6511680000000001  
         C64       1.0000    0.45839   0.56760   0.88350   Biso      1.000     C          -0.134893           
         H1        1.0000    0.38370   0.57160   0.07500   Biso      1.000     H          0.120532  
         H2        1.0000    0.61630   0.42840   0.07500   Biso      1.000     H          0.120532  
         H3        1.0000    0.07160   0.61630   0.82500   Biso      1.000     H          0.120532  
         H4        1.0000    0.81300   0.25000   0.62500   Biso      1.000     H          0.422727  
         H5        1.0000    0.31300   0.75000   0.12500   Biso      1.000     H          0.422727  
         H6        1.0000    0.68700   0.25000   0.12500   Biso      1.000     H          0.422727  
         H7        1.0000    0.18700   0.75000   0.62500   Biso      1.000     H          0.422727  
         H8        1.0000    0.75000   0.31300   0.87500   Biso      1.000     H          0.422727  
         H9        1.0000    0.25000   0.81300   0.37500   Biso      1.000     H          0.422727  
         H10       1.0000    0.75000   0.18700   0.37500   Biso      1.000     H          0.422727  
         H11       1.0000    0.25000   0.68700   0.87500   Biso      1.000     H          0.422727  
         H12       1.0000    0.00000   0.00000   0.12730   Biso      1.000     H          0.133523  
         H13       1.0000    0.50000   0.00000   0.87730   Biso      1.000     H          0.133523  
         H14       1.0000    0.00000   0.50000   0.37730   Biso      1.000     H          0.133523  
         H15       1.0000    0.00000   0.50000   0.12270   Biso      1.000     H          0.133523  
         H16       1.0000    0.50000   0.00000   0.62270   Biso      1.000     H          0.133523  
         H17       1.0000    0.00000   0.00000   0.87270   Biso      1.000     H          0.133523  
         H18       1.0000    0.11630   0.92840   0.57500   Biso      1.000     H          0.120532  
         H19       1.0000    0.50000   0.50000   0.62730   Biso      1.000     H          0.133523  
         H20       1.0000    0.50000   0.50000   0.37270   Biso      1.000     H          0.133523  
         H21       1.0000    0.92840   0.38370   0.82500   Biso      1.000     H          0.120532  
         H22       1.0000    0.88370   0.42840   0.67500   Biso      1.000     H          0.120532  
         H23       1.0000    0.11630   0.57160   0.67500   Biso      1.000     H          0.120532  
         H24       1.0000    0.61630   0.07160   0.17500   Biso      1.000     H          0.120532  
         H25       1.0000    0.42840   0.88370   0.32500   Biso      1.000     H          0.120532  
         H26       1.0000    0.42840   0.61630   0.92500   Biso      1.000     H          0.120532  
         H27       1.0000    0.57160   0.11630   0.32500   Biso      1.000     H          0.120532  
         H28       1.0000    0.92840   0.11630   0.42500   Biso      1.000     H          0.120532  
         H29       1.0000    0.38370   0.92840   0.17500   Biso      1.000     H          0.120532  
         H30       1.0000    0.88370   0.07160   0.57500   Biso      1.000     H          0.120532  
         H31       1.0000    0.07160   0.88370   0.42500   Biso      1.000     H          0.120532  
         H32       1.0000    0.57160   0.38370   0.92500   Biso      1.000     H          0.120532  
         In1       1.0000    0.31670   0.81670   0.75000   Biso      1.000     In          1.628909  
         In2       1.0000    0.81670   0.31670   0.25000   Biso      1.000     In          1.628909  
         In3       1.0000    0.68330   0.18330   0.75000   Biso      1.000     In          1.628909  
         In4       1.0000    0.18330   0.68330   0.25000   Biso      1.000     In          1.628909  
         In5       1.0000    0.81670   0.18330   0.00000   Biso      1.000     In          1.628909  
         In6       1.0000    0.18330   0.81670   0.00000   Biso      1.000     In          1.628909  
         In7       1.0000    0.68330   0.31670   0.50000   Biso      1.000     In          1.628909  
         In8       1.0000    0.31670   0.68330   0.50000   Biso      1.000     In          1.628909  
         O1        1.0000    0.12070   0.61150   0.36530   Biso      1.000     O          -0.5841810000000001           
         O2        1.0000    0.79220   0.40670   0.50500   Biso      1.000     O          -0.599986           
         O3        1.0000    0.87930   0.38850   0.36530   Biso      1.000     O          -0.5841810000000001           
         O4        1.0000    0.37930   0.88850   0.86530   Biso      1.000     O          -0.5841810000000001           
         O5        1.0000    0.20780   0.59330   0.50500   Biso      1.000     O          -0.599986           
         O6        1.0000    0.59330   0.29220   0.75500   Biso      1.000     O          -0.599986           
         O7        1.0000    0.88850   0.12070   0.11530   Biso      1.000     O          -0.5841810000000001           
         O8        1.0000    0.11150   0.87930   0.11530   Biso      1.000     O          -0.5841810000000001           
         O9        1.0000    0.62070   0.11150   0.86530   Biso      1.000     O          -0.5841810000000001           
         O10       1.0000    0.90670   0.20780   0.25500   Biso      1.000     O          -0.599986           
         O11       1.0000    0.40670   0.70780   0.75500   Biso      1.000     O          -0.599986           
         O12       1.0000    0.29220   0.90670   0.00500   Biso      1.000     O          -0.599986           
         O13       1.0000    0.38850   0.62070   0.61530   Biso      1.000     O          -0.5841810000000001           
         O14       1.0000    0.70780   0.09330   0.00500   Biso      1.000     O          -0.599986           
         O15       1.0000    0.09330   0.79220   0.25500   Biso      1.000     O          -0.599986           
         O16       1.0000    0.62070   0.38850   0.38470   Biso      1.000     O          -0.5841810000000001           
         O17       1.0000    0.88850   0.37930   0.13470   Biso      1.000     O          -0.5841810000000001           
         O18       1.0000    0.70780   0.40670   0.24500   Biso      1.000     O          -0.599986           
         O19       1.0000    0.37930   0.61150   0.38470   Biso      1.000     O          -0.5841810000000001           
         O20       1.0000    0.79220   0.09330   0.74500   Biso      1.000     O          -0.599986           
         O21       1.0000    0.87930   0.11150   0.88470   Biso      1.000     O          -0.5841810000000001           
         O22       1.0000    0.12070   0.88850   0.88470   Biso      1.000     O          -0.5841810000000001           
         O23       1.0000    0.20780   0.90670   0.74500   Biso      1.000     O          -0.599986           
         O24       1.0000    0.09330   0.70780   0.99500   Biso      1.000     O          -0.599986           
         O25       1.0000    0.11150   0.62070   0.13470   Biso      1.000     O          -0.5841810000000001           
         O26       1.0000    0.59330   0.20780   0.49500   Biso      1.000     O          -0.599986           
         O27       1.0000    0.75490   0.25000   0.62500   Biso      1.000     O          -0.98345  
         O28       1.0000    0.61150   0.12070   0.63470   Biso      1.000     O          -0.5841810000000001           
         O29       1.0000    0.25490   0.75000   0.12500   Biso      1.000     O          -0.98345  
         O30       1.0000    0.74510   0.25000   0.12500   Biso      1.000     O          -0.98345  
         O31       1.0000    0.40670   0.79220   0.49500   Biso      1.000     O          -0.599986           
         O32       1.0000    0.24510   0.75000   0.62500   Biso      1.000     O          -0.98345  
         O33       1.0000    0.38850   0.87930   0.63470   Biso      1.000     O          -0.5841810000000001           
         O34       1.0000    0.75000   0.25490   0.87500   Biso      1.000     O          -0.98345  
         O35       1.0000    0.29220   0.59330   0.24500   Biso      1.000     O          -0.599986           
         O36       1.0000    0.25000   0.75490   0.37500   Biso      1.000     O          -0.98345  
         O37       1.0000    0.90670   0.29220   0.99500   Biso      1.000     O          -0.599986           
         O38       1.0000    0.75000   0.24510   0.37500   Biso      1.000     O          -0.98345  
         O39       1.0000    0.25000   0.74510   0.87500   Biso      1.000     O          -0.98345  
         O40       1.0000    0.61150   0.37930   0.61530   Biso      1.000     O          -0.5841810000000001 