
##########################################################################
#               Crystallographic Information Format file
#               Produced by PyCifRW module
#
#  This is a CIF file.  CIF has been adopted by the International
#  Union of Crystallography as the standard for data archiving and
#  transmission.
#
#  For information on this file format, follow the CIF links at
#  http://www.iucr.org
##########################################################################

data_image0

_cell_length_a                          15.4889
_cell_length_b                          15.4889
_cell_length_c                          12.3083
_cell_angle_alpha                       90
_cell_angle_beta                        90
_cell_angle_gamma                       90
_symmetry_space_group_name_H-M          'P 1'
_symmetry_int_tables_number             1
loop_
  _symmetry_equiv_pos_as_xyz
         'x, y, z' 
loop_
  _atom_site_label
  _atom_site_occupancy
  _atom_site_fract_x
  _atom_site_fract_y
  _atom_site_fract_z
  _atom_site_thermal_displace_type
  _atom_site_B_iso_or_equiv
  _atom_site_type_symbol
  _atom_site_charge
         C1        1.0000    0.43280   0.54133   0.11770   Biso      1.000     C          -0.132288           
         C2        1.0000    0.06720   0.54133   0.63230   Biso      1.000     C          -0.132288           
         C3        1.0000    0.93280   0.04133   0.73240   Biso      1.000     C          -0.038963           
         C4        1.0000    0.00000   0.00000   0.43958   Biso      1.000     C          0.066082  
         C5        1.0000    0.00000   0.00000   0.21030   Biso      1.000     C          -0.099769           
         C6        1.0000    0.86420   0.41540   0.45870   Biso      1.000     C          0.663372  
         C7        1.0000    0.93280   0.45867   0.51760   Biso      1.000     C          -0.038963           
         C8        1.0000    0.93280   0.45867   0.63230   Biso      1.000     C          -0.132288           
         C9        1.0000    0.43280   0.54133   0.23240   Biso      1.000     C          -0.038963           
         C10       1.0000    0.50000   0.50000   0.93958   Biso      1.000     C          0.066082  
         C11       1.0000    0.50000   0.50000   0.71030   Biso      1.000     C          -0.099769           
         C12       1.0000    0.36420   0.91540   0.95870   Biso      1.000     C          0.663372  
         C13       1.0000    0.43280   0.95867   0.01760   Biso      1.000     C          -0.038963           
         C14       1.0000    0.43280   0.95867   0.13230   Biso      1.000     C          -0.132288           
         C15       1.0000    0.86420   0.08460   0.79130   Biso      1.000     C          0.663373  
         C16       1.0000    0.56720   0.45867   0.11770   Biso      1.000     C          -0.132288           
         C17       1.0000    0.91540   0.36420   0.04130   Biso      1.000     C          0.663372  
         C18       1.0000    0.95867   0.43280   0.98240   Biso      1.000     C          -0.038963           
         C19       1.0000    0.95867   0.43280   0.86770   Biso      1.000     C          -0.132288           
         C20       1.0000    0.50000   0.50000   0.06042   Biso      1.000     C          0.066082  
         C21       1.0000    0.04133   0.56720   0.86770   Biso      1.000     C          -0.132288           
         C22       1.0000    0.04133   0.56720   0.98240   Biso      1.000     C          -0.038963           
         C23       1.0000    0.41540   0.86420   0.54130   Biso      1.000     C          0.663372  
         C24       1.0000    0.45867   0.93280   0.48240   Biso      1.000     C          -0.038963           
         C25       1.0000    0.45867   0.93280   0.36770   Biso      1.000     C          -0.132288           
         C26       1.0000    0.08460   0.63580   0.04130   Biso      1.000     C          0.663373  
         C27       1.0000    0.13580   0.91540   0.79130   Biso      1.000     C          0.663372  
         C28       1.0000    0.06720   0.95867   0.73240   Biso      1.000     C          -0.038963           
         C29       1.0000    0.58460   0.13580   0.54130   Biso      1.000     C          0.663372  
         C30       1.0000    0.54133   0.06720   0.48240   Biso      1.000     C          -0.038963           
         C31       1.0000    0.06720   0.54133   0.51760   Biso      1.000     C          -0.038963           
         C32       1.0000    0.54133   0.06720   0.36770   Biso      1.000     C          -0.132288           
         C33       1.0000    0.13580   0.58460   0.45870   Biso      1.000     C          0.663373  
         C34       1.0000    0.50000   0.00000   0.18958   Biso      1.000     C          0.066082  
         C35       1.0000    0.50000   0.50000   0.28970   Biso      1.000     C          -0.099769           
         C36       1.0000    0.58460   0.36420   0.70870   Biso      1.000     C          0.663372  
         C37       1.0000    0.54133   0.43280   0.76760   Biso      1.000     C          -0.038963           
         C38       1.0000    0.54133   0.43280   0.88230   Biso      1.000     C          -0.132288           
         C39       1.0000    0.36420   0.58460   0.29130   Biso      1.000     C          0.663373  
         C40       1.0000    0.00000   0.00000   0.56042   Biso      1.000     C          0.066082  
         C41       1.0000    0.00000   0.00000   0.78970   Biso      1.000     C          -0.099768           
         C42       1.0000    0.08460   0.86420   0.20870   Biso      1.000     C          0.663372  
         C43       1.0000    0.04133   0.93280   0.26760   Biso      1.000     C          -0.038963           
         C44       1.0000    0.04133   0.93280   0.38230   Biso      1.000     C          -0.132288           
         C45       1.0000    0.50000   0.00000   0.31042   Biso      1.000     C          0.066082  
         C46       1.0000    0.50000   0.00000   0.53970   Biso      1.000     C          -0.099768           
         C47       1.0000    0.91540   0.13580   0.20870   Biso      1.000     C          0.663372  
         C48       1.0000    0.50000   0.00000   0.96030   Biso      1.000     C          -0.099769           
         C49       1.0000    0.06720   0.95867   0.61770   Biso      1.000     C          -0.132288           
         C50       1.0000    0.95867   0.06720   0.38230   Biso      1.000     C          -0.132288           
         C51       1.0000    0.93280   0.04133   0.61770   Biso      1.000     C          -0.132288           
         C52       1.0000    0.56720   0.04133   0.13230   Biso      1.000     C          -0.132288           
         C53       1.0000    0.56720   0.04133   0.01760   Biso      1.000     C          -0.038963           
         C54       1.0000    0.63580   0.08460   0.95870   Biso      1.000     C          0.663373  
         C55       1.0000    0.00000   0.50000   0.46030   Biso      1.000     C          -0.099768           
         C56       1.0000    0.00000   0.50000   0.68958   Biso      1.000     C          0.066082  
         C57       1.0000    0.95867   0.06720   0.26760   Biso      1.000     C          -0.038963           
         C58       1.0000    0.56720   0.45867   0.23240   Biso      1.000     C          -0.038963           
         C59       1.0000    0.45867   0.56720   0.76760   Biso      1.000     C          -0.038963           
         C60       1.0000    0.41540   0.63580   0.70870   Biso      1.000     C          0.663373  
         C61       1.0000    0.00000   0.50000   0.03970   Biso      1.000     C          -0.099768           
         C62       1.0000    0.00000   0.50000   0.81042   Biso      1.000     C          0.066082  
         C63       1.0000    0.63580   0.41540   0.29130   Biso      1.000     C          0.663373  
         C64       1.0000    0.45867   0.56720   0.88230   Biso      1.000     C          -0.132288           
         H1        1.0000    0.38280   0.57210   0.07510   Biso      1.000     H          0.117159  
         H2        1.0000    0.61720   0.42790   0.07510   Biso      1.000     H          0.117159  
         H3        1.0000    0.07210   0.61720   0.82510   Biso      1.000     H          0.117159  
         H4        1.0000    0.81890   0.25000   0.62500   Biso      1.000     H          0.426665  
         H5        1.0000    0.31890   0.75000   0.12500   Biso      1.000     H          0.426665  
         H6        1.0000    0.68110   0.25000   0.12500   Biso      1.000     H          0.426665  
         H7        1.0000    0.18110   0.75000   0.62500   Biso      1.000     H          0.426665  
         H8        1.0000    0.75000   0.31890   0.87500   Biso      1.000     H          0.426665  
         H9        1.0000    0.25000   0.81890   0.37500   Biso      1.000     H          0.426665  
         H10       1.0000    0.75000   0.18110   0.37500   Biso      1.000     H          0.426665  
         H11       1.0000    0.25000   0.68110   0.87500   Biso      1.000     H          0.426665  
         H12       1.0000    0.00000   0.00000   0.12500   Biso      1.000     H          0.130495  
         H13       1.0000    0.50000   0.00000   0.87500   Biso      1.000     H          0.130495  
         H14       1.0000    0.00000   0.50000   0.37500   Biso      1.000     H          0.130495  
         H15       1.0000    0.00000   0.50000   0.12500   Biso      1.000     H          0.130495  
         H16       1.0000    0.50000   0.00000   0.62500   Biso      1.000     H          0.130495  
         H17       1.0000    0.00000   0.00000   0.87500   Biso      1.000     H          0.130495  
         H18       1.0000    0.11720   0.92790   0.57510   Biso      1.000     H          0.117158  
         H19       1.0000    0.50000   0.50000   0.62500   Biso      1.000     H          0.130495  
         H20       1.0000    0.50000   0.50000   0.37500   Biso      1.000     H          0.130495  
         H21       1.0000    0.92790   0.38280   0.82510   Biso      1.000     H          0.117158  
         H22       1.0000    0.88280   0.42790   0.67490   Biso      1.000     H          0.117158  
         H23       1.0000    0.11720   0.57210   0.67490   Biso      1.000     H          0.117158  
         H24       1.0000    0.61720   0.07210   0.17490   Biso      1.000     H          0.117158  
         H25       1.0000    0.42790   0.88280   0.32510   Biso      1.000     H          0.117158  
         H26       1.0000    0.42790   0.61720   0.92490   Biso      1.000     H          0.117159  
         H27       1.0000    0.57210   0.11720   0.32510   Biso      1.000     H          0.117159  
         H28       1.0000    0.92790   0.11720   0.42490   Biso      1.000     H          0.117158  
         H29       1.0000    0.38280   0.92790   0.17490   Biso      1.000     H          0.117158  
         H30       1.0000    0.88280   0.07210   0.57510   Biso      1.000     H          0.117158  
         H31       1.0000    0.07210   0.88280   0.42490   Biso      1.000     H          0.117158  
         H32       1.0000    0.57210   0.38280   0.92490   Biso      1.000     H          0.117158  
         In1       1.0000    0.31580   0.81580   0.75000   Biso      1.000     In          1.616474  
         In2       1.0000    0.81580   0.31580   0.25000   Biso      1.000     In          1.616474  
         In3       1.0000    0.68420   0.18420   0.75000   Biso      1.000     In          1.616475  
         In4       1.0000    0.18420   0.68420   0.25000   Biso      1.000     In          1.616474  
         In5       1.0000    0.81580   0.18420   0.00000   Biso      1.000     In          1.616474  
         In6       1.0000    0.18420   0.81580   0.00000   Biso      1.000     In          1.616475  
         In7       1.0000    0.68420   0.31580   0.50000   Biso      1.000     In          1.616474  
         In8       1.0000    0.31580   0.68420   0.50000   Biso      1.000     In          1.616474  
         O1        1.0000    0.12030   0.61180   0.36660   Biso      1.000     O          -0.58595  
         O2        1.0000    0.79340   0.40760   0.50310   Biso      1.000     O          -0.601345           
         O3        1.0000    0.87970   0.38820   0.36660   Biso      1.000     O          -0.58595  
         O4        1.0000    0.37970   0.88820   0.86660   Biso      1.000     O          -0.58595  
         O5        1.0000    0.20660   0.59240   0.50310   Biso      1.000     O          -0.601345           
         O6        1.0000    0.59240   0.29340   0.75310   Biso      1.000     O          -0.601345           
         O7        1.0000    0.88820   0.12030   0.11660   Biso      1.000     O          -0.58595  
         O8        1.0000    0.11180   0.87970   0.11660   Biso      1.000     O          -0.58595  
         O9        1.0000    0.62030   0.11180   0.86660   Biso      1.000     O          -0.58595  
         O10       1.0000    0.90760   0.20660   0.25310   Biso      1.000     O          -0.601345           
         O11       1.0000    0.40760   0.70660   0.75310   Biso      1.000     O          -0.601345           
         O12       1.0000    0.29340   0.90760   0.00310   Biso      1.000     O          -0.601345           
         O13       1.0000    0.38820   0.62030   0.61660   Biso      1.000     O          -0.58595  
         O14       1.0000    0.70660   0.09240   0.00310   Biso      1.000     O          -0.601345           
         O15       1.0000    0.09240   0.79340   0.25310   Biso      1.000     O          -0.601345           
         O16       1.0000    0.62030   0.38820   0.38340   Biso      1.000     O          -0.58595  
         O17       1.0000    0.88820   0.37970   0.13340   Biso      1.000     O          -0.58595  
         O18       1.0000    0.70660   0.40760   0.24690   Biso      1.000     O          -0.601345           
         O19       1.0000    0.37970   0.61180   0.38340   Biso      1.000     O          -0.58595  
         O20       1.0000    0.79340   0.09240   0.74690   Biso      1.000     O          -0.601345           
         O21       1.0000    0.87970   0.11180   0.88340   Biso      1.000     O          -0.58595  
         O22       1.0000    0.12030   0.88820   0.88340   Biso      1.000     O          -0.58595  
         O23       1.0000    0.20660   0.90760   0.74690   Biso      1.000     O          -0.601345           
         O24       1.0000    0.09240   0.70660   0.99690   Biso      1.000     O          -0.601345           
         O25       1.0000    0.11180   0.62030   0.13340   Biso      1.000     O          -0.58595  
         O26       1.0000    0.59240   0.20660   0.49690   Biso      1.000     O          -0.601345           
         O27       1.0000    0.76080   0.25000   0.62500   Biso      1.000     O          -0.983915           
         O28       1.0000    0.61180   0.12030   0.63340   Biso      1.000     O          -0.58595  
         O29       1.0000    0.26080   0.75000   0.12500   Biso      1.000     O          -0.983915           
         O30       1.0000    0.73920   0.25000   0.12500   Biso      1.000     O          -0.983915           
         O31       1.0000    0.40760   0.79340   0.49690   Biso      1.000     O          -0.601345           
         O32       1.0000    0.23920   0.75000   0.62500   Biso      1.000     O          -0.983915           
         O33       1.0000    0.38820   0.87970   0.63340   Biso      1.000     O          -0.58595  
         O34       1.0000    0.75000   0.26080   0.87500   Biso      1.000     O          -0.983915           
         O35       1.0000    0.29340   0.59240   0.24690   Biso      1.000     O          -0.601345           
         O36       1.0000    0.25000   0.76080   0.37500   Biso      1.000     O          -0.983915           
         O37       1.0000    0.90760   0.29340   0.99690   Biso      1.000     O          -0.601345           
         O38       1.0000    0.75000   0.23920   0.37500   Biso      1.000     O          -0.983915           
         O39       1.0000    0.25000   0.73920   0.87500   Biso      1.000     O          -0.983915           
         O40       1.0000    0.61180   0.37970   0.61660   Biso      1.000     O          -0.58595 