
##########################################################################
#               Crystallographic Information Format file
#               Produced by PyCifRW module
#
#  This is a CIF file.  CIF has been adopted by the International
#  Union of Crystallography as the standard for data archiving and
#  transmission.
#
#  For information on this file format, follow the CIF links at
#  http://www.iucr.org
##########################################################################

data_image0

_cell_length_a                          8.309
_cell_length_b                          9.35
_cell_length_c                          16.158
_cell_angle_alpha                       90
_cell_angle_beta                        90
_cell_angle_gamma                       94.078
_symmetry_space_group_name_H-M          'P 1'
_symmetry_int_tables_number             1
loop_
  _symmetry_equiv_pos_as_xyz
         'x, y, z' 
loop_
  _atom_site_label
  _atom_site_occupancy
  _atom_site_fract_x
  _atom_site_fract_y
  _atom_site_fract_z
  _atom_site_thermal_displace_type
  _atom_site_B_iso_or_equiv
  _atom_site_type_symbol
  _atom_site_charge
         C1        1.0000    0.62900   0.25600   0.42950   Biso      1.000     C          0.634095  
         C2        1.0000    0.81500   0.87400   0.88350   Biso      1.000     C          -0.098852           
         C3        1.0000    0.84800   0.00800   0.91240   Biso      1.000     C          0.07387200000000001           
         C4        1.0000    0.87100   0.74400   0.92950   Biso      1.000     C          0.634095  
         C5        1.0000    0.75800   0.89300   0.29660   Biso      1.000     C          0.099371  
         C6        1.0000    0.79300   0.02400   0.26600   Biso      1.000     C          -0.131132           
         C7        1.0000    0.75600   0.14000   0.30600   Biso      1.000     C          -0.094467           
         C8        1.0000    0.68500   0.12600   0.38350   Biso      1.000     C          -0.098855           
         C9        1.0000    0.65200   0.99200   0.41240   Biso      1.000     C          0.07387200000000001           
         C10       1.0000    0.29300   0.75500   0.24600   Biso      1.000     C          0.589291  
         C11       1.0000    0.25800   0.89300   0.20340   Biso      1.000     C          0.099371  
         C12       1.0000    0.74400   0.86000   0.80600   Biso      1.000     C          -0.0945   
         C13       1.0000    0.29300   0.02400   0.23400   Biso      1.000     C          -0.131132           
         C14       1.0000    0.18500   0.12600   0.11650   Biso      1.000     C          -0.098856           
         C15       1.0000    0.15200   0.99200   0.08760   Biso      1.000     C          0.07387200000000001           
         C16       1.0000    0.12900   0.25600   0.07050   Biso      1.000     C          0.634095  
         C17       1.0000    0.20700   0.24500   0.74600   Biso      1.000     C          0.589291  
         C18       1.0000    0.24200   0.10700   0.70340   Biso      1.000     C          0.099371  
         C19       1.0000    0.20700   0.97600   0.73400   Biso      1.000     C          -0.131132           
         C20       1.0000    0.24400   0.86000   0.69400   Biso      1.000     C          -0.094467           
         C21       1.0000    0.31500   0.87400   0.61650   Biso      1.000     C          -0.098855           
         C22       1.0000    0.34800   0.00800   0.58760   Biso      1.000     C          0.07387200000000001           
         C23       1.0000    0.37100   0.74400   0.57050   Biso      1.000     C          0.634095  
         C24       1.0000    0.25600   0.14000   0.19400   Biso      1.000     C          -0.094466           
         C25       1.0000    0.70700   0.97600   0.76600   Biso      1.000     C          -0.131128           
         C26       1.0000    0.79300   0.75500   0.25400   Biso      1.000     C          0.589291  
         C27       1.0000    0.70700   0.24500   0.75400   Biso      1.000     C          0.589288  
         C28       1.0000    0.74200   0.10700   0.79660   Biso      1.000     C          0.099399  
         H1        1.0000    0.65400   0.96620   0.71550   Biso      1.000     H          0.122249  
         H2        1.0000    0.72350   0.76960   0.78230   Biso      1.000     H          0.104396  
         H3        1.0000    0.89470   0.01850   0.96450   Biso      1.000     H          0.091876  
         H4        1.0000    0.22130   0.40630   0.45370   Biso      1.000     H          0.46943500000000005           
         H5        1.0000    0.84600   0.03380   0.21550   Biso      1.000     H          0.122249  
         H6        1.0000    0.77650   0.23040   0.28230   Biso      1.000     H          0.104394  
         H7        1.0000    0.60530   0.98150   0.46450   Biso      1.000     H          0.091876  
         H8        1.0000    0.27870   0.59370   0.95370   Biso      1.000     H          0.46943500000000005           
         H9        1.0000    0.15530   0.48060   0.94550   Biso      1.000     H          0.310646  
         H10       1.0000    0.34600   0.03380   0.28450   Biso      1.000     H          0.122249  
         H11       1.0000    0.34470   0.51940   0.44550   Biso      1.000     H          0.310646  
         H12       1.0000    0.27650   0.23040   0.21770   Biso      1.000     H          0.104394  
         H13       1.0000    0.84470   0.51940   0.05450   Biso      1.000     H          0.310647  
         H14       1.0000    0.39470   0.01850   0.53550   Biso      1.000     H          0.091876  
         H15       1.0000    0.22350   0.76960   0.71770   Biso      1.000     H          0.104394  
         H16       1.0000    0.72130   0.40630   0.04630   Biso      1.000     H          0.46943500000000005           
         H17       1.0000    0.65530   0.48060   0.55450   Biso      1.000     H          0.310646  
         H18       1.0000    0.77870   0.59370   0.54630   Biso      1.000     H          0.46943500000000005           
         H19       1.0000    0.10530   0.98150   0.03550   Biso      1.000     H          0.091876  
         H20       1.0000    0.15400   0.96620   0.78450   Biso      1.000     H          0.122249  
         N1        1.0000    0.18400   0.87300   0.12980   Biso      1.000     N          -0.37593200000000004          
         N2        1.0000    0.81600   0.12700   0.87020   Biso      1.000     N          -0.37593499999999996          
         N3        1.0000    0.68400   0.87300   0.37020   Biso      1.000     N          -0.37593200000000004          
         N4        1.0000    0.31600   0.12700   0.62980   Biso      1.000     N          -0.37593200000000004          
         O1        1.0000    0.17600   0.55900   0.97090   Biso      1.000     O          -0.880424           
         O2        1.0000    0.08100   0.23900   0.00120   Biso      1.000     O          -0.620916           
         O3        1.0000    0.14500   0.37440   0.10860   Biso      1.000     O          -0.68591  
         O4        1.0000    0.37800   0.76400   0.30750   Biso      1.000     O          -0.642914           
         O5        1.0000    0.35500   0.62560   0.60860   Biso      1.000     O          -0.68591  
         O6        1.0000    0.12200   0.23600   0.80750   Biso      1.000     O          -0.642914           
         O7        1.0000    0.67600   0.55900   0.52910   Biso      1.000     O          -0.880424           
         O8        1.0000    0.41900   0.76100   0.50120   Biso      1.000     O          -0.620916           
         O9        1.0000    0.73300   0.64300   0.28900   Biso      1.000     O          -0.712745           
         O10       1.0000    0.23300   0.64300   0.21100   Biso      1.000     O          -0.712745           
         O11       1.0000    0.87800   0.76400   0.19250   Biso      1.000     O          -0.642914           
         O12       1.0000    0.82400   0.44100   0.02910   Biso      1.000     O          -0.880424           
         O13       1.0000    0.58100   0.23900   0.49880   Biso      1.000     O          -0.620916           
         O14       1.0000    0.32400   0.44100   0.47090   Biso      1.000     O          -0.880424           
         O15       1.0000    0.76700   0.35700   0.78900   Biso      1.000     O          -0.7127439999999999           
         O16       1.0000    0.62200   0.23600   0.69250   Biso      1.000     O          -0.642914           
         O17       1.0000    0.85500   0.62560   0.89140   Biso      1.000     O          -0.685909           
         O18       1.0000    0.91900   0.76100   0.99880   Biso      1.000     O          -0.620916           
         O19       1.0000    0.26700   0.35700   0.71100   Biso      1.000     O          -0.7127439999999999           
         O20       1.0000    0.64500   0.37440   0.39140   Biso      1.000     O          -0.68591  
         Pr1       1.0000    0.96810   0.39198   0.89347   Biso      1.000     Pr          1.748066  
         Pr2       1.0000    0.53190   0.60802   0.39347   Biso      1.000     Pr          1.7480669999999998  
         Pr3       1.0000    0.03190   0.60802   0.10653   Biso      1.000     Pr          1.748066  
         Pr4       1.0000    0.46810   0.39198   0.60653   Biso      1.000     Pr          1.7480669999999998 