
##########################################################################
#               Crystallographic Information Format file
#               Produced by PyCifRW module
#
#  This is a CIF file.  CIF has been adopted by the International
#  Union of Crystallography as the standard for data archiving and
#  transmission.
#
#  For information on this file format, follow the CIF links at
#  http://www.iucr.org
##########################################################################

data_image0

_cell_length_a                          7.801
_cell_length_b                          20.3539
_cell_length_c                          20.3539
_cell_angle_alpha                       90
_cell_angle_beta                        90
_cell_angle_gamma                       90
_symmetry_space_group_name_H-M          'P 1'
_symmetry_int_tables_number             1
loop_
  _symmetry_equiv_pos_as_xyz
         'x, y, z' 
loop_
  _atom_site_label
  _atom_site_occupancy
  _atom_site_fract_x
  _atom_site_fract_y
  _atom_site_fract_z
  _atom_site_thermal_displace_type
  _atom_site_B_iso_or_equiv
  _atom_site_type_symbol
  _atom_site_charge
         C1        1.0000    0.53290   0.03210   0.44070   Biso      1.000     C          -0.185498           
         C2        1.0000    0.53290   0.46790   0.05930   Biso      1.000     C          -0.185937           
         C3        1.0000    0.04620   0.00150   0.43570   Biso      1.000     C          -0.107268           
         C4        1.0000    0.98950   0.05800   0.53390   Biso      1.000     C          0.086522  
         C5        1.0000    0.03290   0.05930   0.46790   Biso      1.000     C          -0.186144           
         C6        1.0000    0.04620   0.49850   0.06430   Biso      1.000     C          -0.10613099999999999          
         C7        1.0000    0.98950   0.44200   0.96610   Biso      1.000     C          0.088658  
         C8        1.0000    0.03290   0.44070   0.03210   Biso      1.000     C          -0.18503699999999998          
         C9        1.0000    0.54620   0.06430   0.00150   Biso      1.000     C          -0.106373           
         C10       1.0000    0.48950   0.53390   0.05800   Biso      1.000     C          0.085937  
         C11       1.0000    0.48950   0.96610   0.05800   Biso      1.000     C          0.088519  
         C12       1.0000    0.54620   0.43570   0.49850   Biso      1.000     C          -0.107806           
         C13       1.0000    0.48950   0.53390   0.44200   Biso      1.000     C          0.085966  
         C14       1.0000    0.53290   0.46790   0.44070   Biso      1.000     C          -0.18568099999999998          
         C15       1.0000    0.95380   0.99850   0.93570   Biso      1.000     C          -0.107303           
         C16       1.0000    0.01050   0.94200   0.03390   Biso      1.000     C          0.086783  
         C17       1.0000    0.95380   0.50150   0.56430   Biso      1.000     C          -0.106248           
         C18       1.0000    0.01050   0.55800   0.46610   Biso      1.000     C          0.08811000000000001           
         C19       1.0000    0.96710   0.55930   0.53210   Biso      1.000     C          -0.18524100000000002          
         C20       1.0000    0.53290   0.03210   0.05930   Biso      1.000     C          -0.18493099999999998          
         C21       1.0000    0.45380   0.93570   0.50150   Biso      1.000     C          -0.10630799999999999          
         C22       1.0000    0.54620   0.43570   0.00150   Biso      1.000     C          -0.107821           
         C23       1.0000    0.54620   0.06430   0.49850   Biso      1.000     C          -0.10622999999999999          
         C24       1.0000    0.95380   0.99850   0.56430   Biso      1.000     C          -0.107217           
         C25       1.0000    0.01050   0.94200   0.46610   Biso      1.000     C          0.08654500000000001           
         C26       1.0000    0.96710   0.94070   0.53210   Biso      1.000     C          -0.18617999999999998          
         C27       1.0000    0.95380   0.50150   0.93570   Biso      1.000     C          -0.106155           
         C28       1.0000    0.01050   0.55800   0.03390   Biso      1.000     C          0.088612  
         C29       1.0000    0.96710   0.55930   0.96790   Biso      1.000     C          -0.1849   
         C30       1.0000    0.45380   0.93570   0.99850   Biso      1.000     C          -0.105977           
         C31       1.0000    0.51050   0.03390   0.94200   Biso      1.000     C          0.08884199999999999           
         C32       1.0000    0.48950   0.96610   0.44200   Biso      1.000     C          0.088788  
         C33       1.0000    0.46710   0.96790   0.94070   Biso      1.000     C          -0.18523900000000001          
         C34       1.0000    0.51050   0.46610   0.55800   Biso      1.000     C          0.085849  
         C35       1.0000    0.46710   0.53210   0.55930   Biso      1.000     C          -0.186279           
         C36       1.0000    0.04620   0.00150   0.06430   Biso      1.000     C          -0.10728900000000001          
         C37       1.0000    0.98950   0.05800   0.96610   Biso      1.000     C          0.086623  
         C38       1.0000    0.03290   0.05930   0.03210   Biso      1.000     C          -0.186247           
         C39       1.0000    0.04620   0.49850   0.43570   Biso      1.000     C          -0.10618699999999999          
         C40       1.0000    0.98950   0.44200   0.53390   Biso      1.000     C          0.088226  
         C41       1.0000    0.03290   0.44070   0.46790   Biso      1.000     C          -0.185078           
         C42       1.0000    0.45380   0.56430   0.50150   Biso      1.000     C          -0.107697           
         C43       1.0000    0.51050   0.03390   0.55800   Biso      1.000     C          0.088949  
         C44       1.0000    0.96710   0.94070   0.96790   Biso      1.000     C          -0.185874           
         C45       1.0000    0.45380   0.56430   0.99850   Biso      1.000     C          -0.107797           
         C46       1.0000    0.51050   0.46610   0.94200   Biso      1.000     C          0.08567000000000001           
         C47       1.0000    0.46710   0.53210   0.94070   Biso      1.000     C          -0.18617999999999998          
         C48       1.0000    0.46710   0.96790   0.55930   Biso      1.000     C          -0.185184           
         H1        1.0000    0.41900   0.60900   0.99850   Biso      1.000     H          0.113024  
         H2        1.0000    0.41900   0.89100   0.50150   Biso      1.000     H          0.113915  
         H3        1.0000    0.91900   0.99850   0.89100   Biso      1.000     H          0.113514  
         H4        1.0000    0.58100   0.39100   0.49850   Biso      1.000     H          0.113106  
         H5        1.0000    0.58100   0.10900   0.00150   Biso      1.000     H          0.113936  
         H6        1.0000    0.08100   0.49850   0.10900   Biso      1.000     H          0.114177  
         H7        1.0000    0.08100   0.00150   0.39100   Biso      1.000     H          0.113371  
         H8        1.0000    0.91900   0.50150   0.60900   Biso      1.000     H          0.11386600000000001           
         H9        1.0000    0.58100   0.10900   0.49850   Biso      1.000     H          0.11392000000000001           
         H10       1.0000    0.08100   0.49850   0.39100   Biso      1.000     H          0.11412699999999999           
         H11       1.0000    0.08100   0.00150   0.10900   Biso      1.000     H          0.113401  
         H12       1.0000    0.41900   0.60900   0.50150   Biso      1.000     H          0.113034  
         H13       1.0000    0.41900   0.89100   0.99850   Biso      1.000     H          0.113969  
         H14       1.0000    0.91900   0.50150   0.89100   Biso      1.000     H          0.113927  
         H15       1.0000    0.58100   0.39100   0.00150   Biso      1.000     H          0.11304700000000001           
         H16       1.0000    0.91900   0.99850   0.60900   Biso      1.000     H          0.11333800000000001           
         O1        1.0000    0.26630   0.95660   0.83360   Biso      1.000     O          -0.7138260000000001           
         O2        1.0000    0.08150   0.67990   0.93940   Biso      1.000     O          -0.8064600000000001           
         O3        1.0000    0.89840   0.62170   0.85490   Biso      1.000     O          -0.932328           
         O4        1.0000    0.76630   0.66640   0.95660   Biso      1.000     O          -0.716763           
         O5        1.0000    0.08150   0.82010   0.56060   Biso      1.000     O          -0.806794           
         O6        1.0000    0.91850   0.17990   0.43940   Biso      1.000     O          -0.806843           
         O7        1.0000    0.73370   0.04340   0.16640   Biso      1.000     O          -0.715739           
         O8        1.0000    0.10160   0.37830   0.14510   Biso      1.000     O          -0.931499           
         O9        1.0000    0.91850   0.32010   0.06060   Biso      1.000     O          -0.8067850000000001           
         O10       1.0000    0.60160   0.14510   0.12170   Biso      1.000     O          -0.931408           
         O11       1.0000    0.41850   0.06060   0.17990   Biso      1.000     O          -0.806597           
         O12       1.0000    0.73370   0.45660   0.33360   Biso      1.000     O          -0.717174           
         O13       1.0000    0.60160   0.35490   0.37830   Biso      1.000     O          -0.9311870000000001           
         O14       1.0000    0.39840   0.85490   0.87830   Biso      1.000     O          -0.9315959999999999           
         O15       1.0000    0.23370   0.33360   0.04340   Biso      1.000     O          -0.717003           
         O16       1.0000    0.58150   0.93940   0.82010   Biso      1.000     O          -0.8063819999999999           
         O17       1.0000    0.73370   0.04340   0.33360   Biso      1.000     O          -0.7160770000000001           
         O18       1.0000    0.39840   0.64510   0.62170   Biso      1.000     O          -0.931348           
         O19       1.0000    0.41850   0.43940   0.32010   Biso      1.000     O          -0.808645           
         O20       1.0000    0.23370   0.16640   0.45660   Biso      1.000     O          -0.717164           
         O21       1.0000    0.41850   0.43940   0.17990   Biso      1.000     O          -0.808665           
         O22       1.0000    0.60160   0.35490   0.12170   Biso      1.000     O          -0.9309360000000001           
         O23       1.0000    0.10160   0.12170   0.35490   Biso      1.000     O          -0.930741           
         O24       1.0000    0.73370   0.45660   0.16640   Biso      1.000     O          -0.717184           
         O25       1.0000    0.41850   0.06060   0.32010   Biso      1.000     O          -0.8065140000000001           
         O26       1.0000    0.60160   0.14510   0.37830   Biso      1.000     O          -0.931484           
         O27       1.0000    0.91850   0.32010   0.43940   Biso      1.000     O          -0.806603           
         O28       1.0000    0.10160   0.37830   0.35490   Biso      1.000     O          -0.931515           
         O29       1.0000    0.23370   0.33360   0.45660   Biso      1.000     O          -0.717328           
         O30       1.0000    0.91850   0.17990   0.06060   Biso      1.000     O          -0.806883           
         O31       1.0000    0.10160   0.12170   0.14510   Biso      1.000     O          -0.930718           
         O32       1.0000    0.23370   0.16640   0.04340   Biso      1.000     O          -0.7169909999999999           
         O33       1.0000    0.58150   0.56060   0.67990   Biso      1.000     O          -0.806818           
         O34       1.0000    0.26630   0.54340   0.66640   Biso      1.000     O          -0.717549           
         O35       1.0000    0.76630   0.83360   0.95660   Biso      1.000     O          -0.718295           
         O36       1.0000    0.76630   0.83360   0.54340   Biso      1.000     O          -0.71718  
         O37       1.0000    0.08150   0.82010   0.93940   Biso      1.000     O          -0.806668           
         O38       1.0000    0.89840   0.87830   0.64510   Biso      1.000     O          -0.930326           
         O39       1.0000    0.89840   0.87830   0.85490   Biso      1.000     O          -0.9333889999999999           
         O40       1.0000    0.39840   0.64510   0.87830   Biso      1.000     O          -0.931227           
         O41       1.0000    0.26630   0.54340   0.83360   Biso      1.000     O          -0.7178100000000001           
         O42       1.0000    0.58150   0.93940   0.67990   Biso      1.000     O          -0.807736           
         O43       1.0000    0.58150   0.56060   0.82010   Biso      1.000     O          -0.806851           
         O44       1.0000    0.26630   0.95660   0.66640   Biso      1.000     O          -0.715547           
         O45       1.0000    0.08150   0.67990   0.56060   Biso      1.000     O          -0.8066180000000001           
         O46       1.0000    0.89840   0.62170   0.64510   Biso      1.000     O          -0.931775           
         O47       1.0000    0.76630   0.66640   0.54340   Biso      1.000     O          -0.716716           
         O48       1.0000    0.39840   0.85490   0.62170   Biso      1.000     O          -0.931635           
         P1        1.0000    0.43150   0.57439   0.86427   Biso      1.000     P          1.386488  
         P2        1.0000    0.43150   0.92561   0.63573   Biso      1.000     P          1.387281  
         P3        1.0000    0.93150   0.63573   0.57439   Biso      1.000     P          1.386971  
         P4        1.0000    0.93150   0.86427   0.92561   Biso      1.000     P          1.387304  
         P5        1.0000    0.56850   0.42561   0.36427   Biso      1.000     P          1.386096  
         P6        1.0000    0.56850   0.07439   0.13573   Biso      1.000     P          1.386895  
         P7        1.0000    0.06850   0.36427   0.07439   Biso      1.000     P          1.38686   
         P8        1.0000    0.56850   0.07439   0.36427   Biso      1.000     P          1.387019  
         P9        1.0000    0.56850   0.42561   0.13573   Biso      1.000     P          1.386168  
         P10       1.0000    0.06850   0.36427   0.42561   Biso      1.000     P          1.386866  
         P11       1.0000    0.06850   0.13573   0.07439   Biso      1.000     P          1.386854  
         P12       1.0000    0.43150   0.57439   0.63573   Biso      1.000     P          1.386614  
         P13       1.0000    0.43150   0.92561   0.86427   Biso      1.000     P          1.386852  
         P14       1.0000    0.93150   0.63573   0.92561   Biso      1.000     P          1.386952  
         P15       1.0000    0.93150   0.86427   0.57439   Biso      1.000     P          1.386935  
         P16       1.0000    0.06850   0.13573   0.42561   Biso      1.000     P          1.386887  
         U1        1.0000    0.70838   0.25000   0.40258   Biso      1.000     U          2.319681  
         U2        1.0000    0.70838   0.25000   0.09742   Biso      1.000     U          2.321077  
         U3        1.0000    0.20838   0.09742   0.25000   Biso      1.000     U          2.322237  
         U4        1.0000    0.20838   0.40258   0.25000   Biso      1.000     U          2.316437  
         U5        1.0000    0.29162   0.75000   0.90258   Biso      1.000     U          2.316839  
         U6        1.0000    0.29162   0.75000   0.59742   Biso      1.000     U          2.31985   
         U7        1.0000    0.79162   0.90258   0.75000   Biso      1.000     U          2.322967  
         U8        1.0000    0.79162   0.59742   0.75000   Biso      1.000     U          2.3183529999999997 