
##########################################################################
#               Crystallographic Information Format file
#               Produced by PyCifRW module
#
#  This is a CIF file.  CIF has been adopted by the International
#  Union of Crystallography as the standard for data archiving and
#  transmission.
#
#  For information on this file format, follow the CIF links at
#  http://www.iucr.org
##########################################################################

data_image0

_cell_length_a                          9.4792
_cell_length_b                          11.3658
_cell_length_c                          22.1265
_cell_angle_alpha                       102.434
_cell_angle_beta                        90
_cell_angle_gamma                       114.646
_symmetry_space_group_name_H-M          'P 1'
_symmetry_int_tables_number             1
loop_
  _symmetry_equiv_pos_as_xyz
         'x, y, z' 
loop_
  _atom_site_label
  _atom_site_occupancy
  _atom_site_fract_x
  _atom_site_fract_y
  _atom_site_fract_z
  _atom_site_thermal_displace_type
  _atom_site_B_iso_or_equiv
  _atom_site_type_symbol
  _atom_site_charge
         C1        1.0000    0.41817   0.91734   0.53647   Biso      1.000     C          -0.013005           
         C2        1.0000    0.08827   0.87454   0.82543   Biso      1.000     C          0.220329  
         C3        1.0000    0.21946   0.86752   0.80301   Biso      1.000     C          -0.202785           
         C4        1.0000    0.21740   0.81140   0.74396   Biso      1.000     C          0.090552  
         C5        1.0000    0.91824   0.36668   0.97344   Biso      1.000     C          -0.117012           
         C6        1.0000    0.07268   0.43296   0.96308   Biso      1.000     C          -0.029328           
         C7        1.0000    0.15384   0.56688   0.99002   Biso      1.000     C          -0.117879           
         C8        1.0000    0.95934   0.82468   0.78537   Biso      1.000     C          -0.206816           
         C9        1.0000    0.15046   0.35872   0.92404   Biso      1.000     C          0.570017  
         C10       1.0000    0.50083   0.08266   0.96353   Biso      1.000     C          -0.011302           
         C11       1.0000    0.46382   0.10564   0.02131   Biso      1.000     C          -0.116695           
         C12       1.0000    0.49582   0.16924   0.92363   Biso      1.000     C          0.579631  
         C13       1.0000    0.94979   0.60098   0.43262   Biso      1.000     C          0.101015  
         C14       1.0000    0.91771   0.71002   0.44579   Biso      1.000     C          -0.196347           
         C15       1.0000    0.79201   0.71042   0.41563   Biso      1.000     C          0.192835  
         C16       1.0000    0.53752   0.97684   0.94230   Biso      1.000     C          -0.115461           
         C17       1.0000    0.96428   0.76916   0.72676   Biso      1.000     C          0.104918  
         C18       1.0000    0.08388   0.92896   0.89042   Biso      1.000     C          -0.245244           
         C19       1.0000    0.07308   0.83076   0.92830   Biso      1.000     C          -0.236953           
         C20       1.0000    0.13466   0.17532   0.71463   Biso      1.000     C          -0.206563           
         C21       1.0000    0.21373   0.12546   0.67457   Biso      1.000     C          0.220673  
         C22       1.0000    0.35194   0.13248   0.69699   Biso      1.000     C          -0.203452           
         C23       1.0000    0.40600   0.18860   0.75604   Biso      1.000     C          0.09036   
         C24       1.0000    0.63972   0.56704   0.53692   Biso      1.000     C          -0.029076           
         C25       1.0000    0.58696   0.43312   0.50998   Biso      1.000     C          -0.11919  
         C26       1.0000    0.79174   0.64128   0.57596   Biso      1.000     C          0.571153  
         C27       1.0000    0.56068   0.02316   0.55770   Biso      1.000     C          -0.113284           
         C28       1.0000    0.35818   0.89436   0.47869   Biso      1.000     C          -0.117128           
         C29       1.0000    0.32658   0.83076   0.57637   Biso      1.000     C          0.58019   
         C30       1.0000    0.65119   0.60098   0.93262   Biso      1.000     C          0.101971  
         C31       1.0000    0.79231   0.71002   0.94579   Biso      1.000     C          -0.196865           
         C32       1.0000    0.91841   0.71042   0.91563   Biso      1.000     C          0.192613  
         C33       1.0000    0.89419   0.59518   0.87347   Biso      1.000     C          -0.206472           
         C34       1.0000    0.74958   0.48916   0.86253   Biso      1.000     C          0.087421  
         C35       1.0000    0.70099   0.59518   0.37347   Biso      1.000     C          -0.205707           
         C36       1.0000    0.19512   0.23084   0.77324   Biso      1.000     C          0.104539  
         C37       1.0000    0.73958   0.48916   0.36253   Biso      1.000     C          0.086882  
         C38       1.0000    0.84508   0.92896   0.39042   Biso      1.000     C          -0.245214           
         C39       1.0000    0.91612   0.07104   0.10958   Biso      1.000     C          -0.245245           
         C40       1.0000    0.03572   0.23084   0.27324   Biso      1.000     C          0.104886  
         C41       1.0000    0.04066   0.17532   0.21463   Biso      1.000     C          -0.206801           
         C42       1.0000    0.91173   0.12546   0.17457   Biso      1.000     C          0.220344  
         C43       1.0000    0.78054   0.13248   0.19699   Biso      1.000     C          -0.202786           
         C44       1.0000    0.78260   0.18860   0.25604   Biso      1.000     C          0.090551  
         C45       1.0000    0.92692   0.16924   0.07170   Biso      1.000     C          -0.236952           
         C46       1.0000    0.08176   0.63332   0.02656   Biso      1.000     C          -0.117007           
         C47       1.0000    0.84616   0.43312   0.00998   Biso      1.000     C          -0.117876           
         C48       1.0000    0.84954   0.64128   0.07596   Biso      1.000     C          0.570017  
         C49       1.0000    0.46248   0.02316   0.05770   Biso      1.000     C          -0.11545  
         C50       1.0000    0.49917   0.91734   0.03647   Biso      1.000     C          -0.011301           
         C51       1.0000    0.53618   0.89436   0.97869   Biso      1.000     C          -0.11668  
         C52       1.0000    0.50418   0.83076   0.07637   Biso      1.000     C          0.579631  
         C53       1.0000    0.92732   0.56704   0.03692   Biso      1.000     C          -0.029326           
         C54       1.0000    0.25042   0.51084   0.13747   Biso      1.000     C          0.087416  
         C55       1.0000    0.10581   0.40482   0.12653   Biso      1.000     C          -0.206472           
         C56       1.0000    0.08159   0.28958   0.08437   Biso      1.000     C          0.192609  
         C57       1.0000    0.80488   0.76916   0.22676   Biso      1.000     C          0.1045    
         C58       1.0000    0.86534   0.82468   0.28537   Biso      1.000     C          -0.206525           
         C59       1.0000    0.78627   0.87454   0.32543   Biso      1.000     C          0.220669  
         C60       1.0000    0.64806   0.86752   0.30301   Biso      1.000     C          -0.203452           
         C61       1.0000    0.59400   0.81140   0.24396   Biso      1.000     C          0.09036   
         C62       1.0000    0.44844   0.36668   0.47344   Biso      1.000     C          -0.116272           
         C63       1.0000    0.36028   0.43296   0.46308   Biso      1.000     C          -0.029074           
         C64       1.0000    0.41304   0.56688   0.49002   Biso      1.000     C          -0.119191           
         C65       1.0000    0.20826   0.35872   0.42404   Biso      1.000     C          0.571153  
         C66       1.0000    0.43932   0.97684   0.44230   Biso      1.000     C          -0.113274           
         C67       1.0000    0.58183   0.08266   0.46353   Biso      1.000     C          -0.013002           
         C68       1.0000    0.64182   0.10564   0.52131   Biso      1.000     C          -0.117113           
         C69       1.0000    0.67342   0.16924   0.42363   Biso      1.000     C          0.580189  
         C70       1.0000    0.34881   0.39902   0.06738   Biso      1.000     C          0.10197   
         C71       1.0000    0.20769   0.28998   0.05421   Biso      1.000     C          -0.196856           
         C72       1.0000    0.75768   0.83076   0.42830   Biso      1.000     C          -0.238182           
         C73       1.0000    0.15492   0.07104   0.60958   Biso      1.000     C          -0.245215           
         C74       1.0000    0.55156   0.63332   0.52656   Biso      1.000     C          -0.116269           
         C75       1.0000    0.26042   0.51084   0.63747   Biso      1.000     C          0.086879  
         C76       1.0000    0.29901   0.40482   0.62653   Biso      1.000     C          -0.20571  
         C77       1.0000    0.20799   0.28958   0.58437   Biso      1.000     C          0.192834  
         C78       1.0000    0.08229   0.28998   0.55421   Biso      1.000     C          -0.196347           
         C79       1.0000    0.05021   0.39902   0.56738   Biso      1.000     C          0.101023  
         C80       1.0000    0.24232   0.16924   0.57170   Biso      1.000     C          -0.238182           
         H1        1.0000    0.97590   0.58840   0.85200   Biso      1.000     H          0.129273  
         H2        1.0000    0.73700   0.41200   0.83350   Biso      1.000     H          0.090219  
         H3        1.0000    0.08980   0.87480   0.97210   Biso      1.000     H          0.131555  
         H4        1.0000    0.15550   0.80200   0.91920   Biso      1.000     H          0.116041  
         H5        1.0000    0.17730   0.01080   0.90540   Biso      1.000     H          0.131003  
         H6        1.0000    0.99440   0.94960   0.89520   Biso      1.000     H          0.126593  
         H7        1.0000    0.31100   0.90260   0.82950   Biso      1.000     H          0.129118  
         H8        1.0000    0.86820   0.82900   0.79860   Biso      1.000     H          0.136635  
         H9        1.0000    0.80270   0.78520   0.97580   Biso      1.000     H          0.133891  
         H10       1.0000    0.86330   0.27620   0.95530   Biso      1.000     H          0.11149   
         H11       1.0000    0.25760   0.61200   0.98330   Biso      1.000     H          0.111095  
         H12       1.0000    0.56400   0.96140   0.90180   Biso      1.000     H          0.10768   
         H13       1.0000    0.87450   0.73400   0.69930   Biso      1.000     H          0.095171  
         H14       1.0000    0.56840   0.60500   0.95410   Biso      1.000     H          0.094775  
         H15       1.0000    0.64560   0.38800   0.51670   Biso      1.000     H          0.111429  
         H16       1.0000    0.60260   0.03860   0.59820   Biso      1.000     H          0.10711   
         H17       1.0000    0.96340   0.39500   0.54590   Biso      1.000     H          0.094742  
         H18       1.0000    0.01750   0.21480   0.52420   Biso      1.000     H          0.134022  
         H19       1.0000    0.38750   0.41160   0.64800   Biso      1.000     H          0.128687  
         H20       1.0000    0.32500   0.58800   0.66650   Biso      1.000     H          0.090327  
         H21       1.0000    0.21500   0.12520   0.52790   Biso      1.000     H          0.13177   
         H22       1.0000    0.35350   0.19800   0.58080   Biso      1.000     H          0.116556  
         H23       1.0000    0.26220   0.82300   0.46340   Biso      1.000     H          0.112696  
         H24       1.0000    0.16650   0.98920   0.59460   Biso      1.000     H          0.131455  
         H25       1.0000    0.14050   0.26600   0.80070   Biso      1.000     H          0.09528   
         H26       1.0000    0.03920   0.17100   0.70140   Biso      1.000     H          0.135905  
         H27       1.0000    0.40840   0.09740   0.67050   Biso      1.000     H          0.12914   
         H28       1.0000    0.50040   0.19260   0.77050   Biso      1.000     H          0.099801  
         H29       1.0000    0.58710   0.72380   0.54470   Biso      1.000     H          0.111144  
         H30       1.0000    0.43920   0.17700   0.03660   Biso      1.000     H          0.112604  
         H31       1.0000    0.04480   0.05040   0.60480   Biso      1.000     H          0.126443  
         H32       1.0000    0.03660   0.60500   0.45410   Biso      1.000     H          0.094743  
         H33       1.0000    0.30780   0.80740   0.72950   Biso      1.000     H          0.099649  
         H34       1.0000    0.61250   0.58840   0.35200   Biso      1.000     H          0.128686  
         H35       1.0000    0.56080   0.82300   0.96340   Biso      1.000     H          0.112604  
         H36       1.0000    0.43600   0.03860   0.09820   Biso      1.000     H          0.107679  
         H37       1.0000    0.74240   0.38800   0.01670   Biso      1.000     H          0.111095  
         H38       1.0000    0.13670   0.72380   0.04470   Biso      1.000     H          0.11149   
         H39       1.0000    0.69220   0.19260   0.27050   Biso      1.000     H          0.09965   
         H40       1.0000    0.68900   0.09740   0.17050   Biso      1.000     H          0.129118  
         H41       1.0000    0.98250   0.78520   0.47580   Biso      1.000     H          0.134022  
         H42       1.0000    0.12550   0.26600   0.30070   Biso      1.000     H          0.095174  
         H43       1.0000    0.00560   0.05040   0.10480   Biso      1.000     H          0.126594  
         H44       1.0000    0.82270   0.98920   0.09460   Biso      1.000     H          0.131003  
         H45       1.0000    0.84450   0.19800   0.08080   Biso      1.000     H          0.116041  
         H46       1.0000    0.91020   0.12520   0.02790   Biso      1.000     H          0.131555  
         H47       1.0000    0.26300   0.58800   0.16650   Biso      1.000     H          0.090219  
         H48       1.0000    0.02410   0.41160   0.14800   Biso      1.000     H          0.129273  
         H49       1.0000    0.13180   0.17100   0.20140   Biso      1.000     H          0.136635  
         H50       1.0000    0.43160   0.39500   0.04590   Biso      1.000     H          0.094775  
         H51       1.0000    0.19730   0.21480   0.02420   Biso      1.000     H          0.133891  
         H52       1.0000    0.78500   0.87480   0.47210   Biso      1.000     H          0.13177   
         H53       1.0000    0.64650   0.80200   0.41920   Biso      1.000     H          0.116556  
         H54       1.0000    0.83350   0.01080   0.40540   Biso      1.000     H          0.131455  
         H55       1.0000    0.95520   0.94960   0.39520   Biso      1.000     H          0.126442  
         H56       1.0000    0.85950   0.73400   0.19930   Biso      1.000     H          0.095282  
         H57       1.0000    0.67500   0.41200   0.33350   Biso      1.000     H          0.090326  
         H58       1.0000    0.59160   0.90260   0.32950   Biso      1.000     H          0.12914   
         H59       1.0000    0.49960   0.80740   0.22950   Biso      1.000     H          0.0998    
         H60       1.0000    0.41290   0.27620   0.45530   Biso      1.000     H          0.111144  
         H61       1.0000    0.35440   0.61200   0.48330   Biso      1.000     H          0.111429  
         H62       1.0000    0.39740   0.96140   0.40180   Biso      1.000     H          0.10711   
         H63       1.0000    0.73780   0.17700   0.53660   Biso      1.000     H          0.112696  
         H64       1.0000    0.96080   0.82900   0.29860   Biso      1.000     H          0.135902  
         N1        1.0000    0.90871   0.23848   0.29438   Biso      1.000     N          -0.221247           
         N2        1.0000    0.37327   0.50966   0.10905   Biso      1.000     N          -0.219403           
         N3        1.0000    0.67023   0.76152   0.20562   Biso      1.000     N          -0.219897           
         N4        1.0000    0.86361   0.49034   0.39095   Biso      1.000     N          -0.218775           
         N5        1.0000    0.09129   0.76152   0.70562   Biso      1.000     N          -0.221251           
         N6        1.0000    0.62673   0.49034   0.89095   Biso      1.000     N          -0.219403           
         N7        1.0000    0.13639   0.50966   0.60905   Biso      1.000     N          -0.218775           
         N8        1.0000    0.32977   0.23848   0.79438   Biso      1.000     N          -0.219902           
         O1        1.0000    0.91799   0.76220   0.09541   Biso      1.000     O          -0.57026  
         O2        1.0000    0.71043   0.56998   0.08650   Biso      1.000     O          -0.585561           
         O3        1.0000    0.60936   0.16836   0.37671   Biso      1.000     O          -0.578544           
         O4        1.0000    0.42071   0.23834   0.93997   Biso      1.000     O          -0.559464           
         O5        1.0000    0.81763   0.23834   0.43997   Biso      1.000     O          -0.559484           
         O6        1.0000    0.15579   0.23780   0.40459   Biso      1.000     O          -0.570378           
         O7        1.0000    0.14045   0.43002   0.41350   Biso      1.000     O          -0.586535           
         O8        1.0000    0.55900   0.16836   0.87671   Biso      1.000     O          -0.578231           
         O9        1.0000    0.08201   0.23780   0.90459   Biso      1.000     O          -0.570261           
         O10       1.0000    0.44100   0.83164   0.12329   Biso      1.000     O          -0.578231           
         O11       1.0000    0.39064   0.83164   0.62329   Biso      1.000     O          -0.578543           
         O12       1.0000    0.18237   0.76166   0.56003   Biso      1.000     O          -0.559483           
         O13       1.0000    0.84421   0.76220   0.59541   Biso      1.000     O          -0.570379           
         O14       1.0000    0.85955   0.56998   0.58650   Biso      1.000     O          -0.586534           
         O15       1.0000    0.57929   0.76166   0.06003   Biso      1.000     O          -0.559464           
         O16       1.0000    0.28957   0.43002   0.91350   Biso      1.000     O          -0.585561           
         Zn1       1.0000    0.58756   0.66650   0.12011   Biso      1.000     Zn          0.732438  
         Zn2       1.0000    0.92106   0.33350   0.37989   Biso      1.000     Zn          0.733154  
         Zn3       1.0000    0.41244   0.33350   0.87989   Biso      1.000     Zn          0.732437  
         Zn4       1.0000    0.07894   0.66650   0.62011   Biso      1.000     Zn          0.733153 