
##########################################################################
#               Crystallographic Information Format file
#               Produced by PyCifRW module
#
#  This is a CIF file.  CIF has been adopted by the International
#  Union of Crystallography as the standard for data archiving and
#  transmission.
#
#  For information on this file format, follow the CIF links at
#  http://www.iucr.org
##########################################################################

data_image0

_cell_length_a                          7.185
_cell_length_b                          9.1854
_cell_length_c                          21.544
_cell_angle_alpha                       90
_cell_angle_beta                        90
_cell_angle_gamma                       90
_symmetry_space_group_name_H-M          'P 1'
_symmetry_int_tables_number             1
loop_
  _symmetry_equiv_pos_as_xyz
         'x, y, z' 
loop_
  _atom_site_label
  _atom_site_occupancy
  _atom_site_fract_x
  _atom_site_fract_y
  _atom_site_fract_z
  _atom_site_thermal_displace_type
  _atom_site_B_iso_or_equiv
  _atom_site_type_symbol
  _atom_site_charge
         C1        1.0000    0.91060   0.21040   0.09510   Biso      1.000     C          0.325693  
         C2        1.0000    0.58940   0.21040   0.09510   Biso      1.000     C          0.325693  
         C3        1.0000    0.58640   0.25700   0.15320   Biso      1.000     C          -0.288371           
         C4        1.0000    0.41360   0.74300   0.15320   Biso      1.000     C          -0.288409           
         C5        1.0000    0.41060   0.78960   0.09510   Biso      1.000     C          0.32573   
         C6        1.0000    0.08940   0.71040   0.59510   Biso      1.000     C          0.325196  
         C7        1.0000    0.08640   0.75700   0.65320   Biso      1.000     C          -0.288133           
         C8        1.0000    0.75000   0.18240   0.06040   Biso      1.000     C          -0.246616           
         C9        1.0000    0.75000   0.31400   0.25160   Biso      1.000     C          0.205055  
         C10       1.0000    0.75000   0.13880   0.99560   Biso      1.000     C          0.722797  
         C11       1.0000    0.58640   0.24300   0.65320   Biso      1.000     C          -0.288179           
         C12       1.0000    0.58940   0.28960   0.59510   Biso      1.000     C          0.325233  
         C13       1.0000    0.75000   0.27330   0.18870   Biso      1.000     C          0.121293  
         C14       1.0000    0.25000   0.68240   0.56040   Biso      1.000     C          -0.242882           
         C15       1.0000    0.25000   0.81400   0.75160   Biso      1.000     C          0.205312  
         C16       1.0000    0.91360   0.24300   0.65320   Biso      1.000     C          -0.288173           
         C17       1.0000    0.25000   0.63880   0.49560   Biso      1.000     C          0.72247   
         C18       1.0000    0.08640   0.74300   0.15320   Biso      1.000     C          -0.288408           
         C19       1.0000    0.91360   0.25700   0.15320   Biso      1.000     C          -0.288369           
         C20       1.0000    0.75000   0.22670   0.68870   Biso      1.000     C          0.121241  
         C21       1.0000    0.75000   0.36120   0.49560   Biso      1.000     C          0.72247   
         C22       1.0000    0.75000   0.18600   0.75160   Biso      1.000     C          0.205307  
         C23       1.0000    0.25000   0.77330   0.68870   Biso      1.000     C          0.121237  
         C24       1.0000    0.41360   0.75700   0.65320   Biso      1.000     C          -0.288177           
         C25       1.0000    0.41060   0.71040   0.59510   Biso      1.000     C          0.325234  
         C26       1.0000    0.25000   0.72670   0.18870   Biso      1.000     C          0.121304  
         C27       1.0000    0.25000   0.86120   0.99560   Biso      1.000     C          0.722798  
         C28       1.0000    0.25000   0.68600   0.25160   Biso      1.000     C          0.205055  
         C29       1.0000    0.25000   0.81760   0.06040   Biso      1.000     C          -0.246622           
         C30       1.0000    0.08940   0.78960   0.09510   Biso      1.000     C          0.325731  
         C31       1.0000    0.75000   0.31760   0.56040   Biso      1.000     C          -0.242886           
         C32       1.0000    0.91060   0.28960   0.59510   Biso      1.000     C          0.325233  
         Cu1       1.0000    0.50000   0.50000   0.40360   Biso      1.000     Cu          0.760973  
         Cu2       1.0000    0.00000   0.00000   0.90360   Biso      1.000     Cu          0.767814  
         Cu3       1.0000    0.00000   0.50000   0.40360   Biso      1.000     Cu          0.760943  
         Cu4       1.0000    0.50000   0.00000   0.90360   Biso      1.000     Cu          0.767816  
         F1        1.0000    0.90500   0.71000   0.57050   Biso      1.000     F          -0.163208           
         F2        1.0000    0.09500   0.21000   0.07050   Biso      1.000     F          -0.1636   
         F3        1.0000    0.59500   0.71000   0.57050   Biso      1.000     F          -0.163213           
         F4        1.0000    0.09500   0.29000   0.57050   Biso      1.000     F          -0.163212           
         F5        1.0000    0.90500   0.79000   0.07050   Biso      1.000     F          -0.163601           
         F6        1.0000    0.59500   0.79000   0.07050   Biso      1.000     F          -0.163594           
         F7        1.0000    0.40500   0.29000   0.57050   Biso      1.000     F          -0.163214           
         F8        1.0000    0.40500   0.21000   0.07050   Biso      1.000     F          -0.163593           
         H1        1.0000    0.02750   0.27970   0.17120   Biso      1.000     H          0.158866  
         H2        1.0000    0.52750   0.77970   0.67120   Biso      1.000     H          0.15889   
         H3        1.0000    0.97250   0.72030   0.17120   Biso      1.000     H          0.158868  
         H4        1.0000    0.47250   0.22030   0.67120   Biso      1.000     H          0.158888  
         H5        1.0000    0.97250   0.77970   0.67120   Biso      1.000     H          0.158884  
         H6        1.0000    0.02750   0.22030   0.67120   Biso      1.000     H          0.158886  
         H7        1.0000    0.52750   0.72030   0.17120   Biso      1.000     H          0.158867  
         H8        1.0000    0.47250   0.27970   0.17120   Biso      1.000     H          0.158865  
         N1        1.0000    0.09290   0.85150   0.78550   Biso      1.000     N          -0.171984           
         N2        1.0000    0.64940   0.09920   0.83800   Biso      1.000     N          -0.101699           
         N3        1.0000    0.14940   0.59920   0.33800   Biso      1.000     N          -0.097793           
         N4        1.0000    0.59290   0.35150   0.28550   Biso      1.000     N          -0.171915           
         N5        1.0000    0.40710   0.64850   0.28550   Biso      1.000     N          -0.171915           
         N6        1.0000    0.64940   0.40080   0.33800   Biso      1.000     N          -0.097742           
         N7        1.0000    0.14940   0.90080   0.83800   Biso      1.000     N          -0.101645           
         N8        1.0000    0.35060   0.59920   0.33800   Biso      1.000     N          -0.097743           
         N9        1.0000    0.90710   0.14850   0.78550   Biso      1.000     N          -0.171984           
         N10       1.0000    0.85060   0.40080   0.33800   Biso      1.000     N          -0.097794           
         N11       1.0000    0.09290   0.64850   0.28550   Biso      1.000     N          -0.171881           
         N12       1.0000    0.40710   0.85150   0.78550   Biso      1.000     N          -0.171978           
         N13       1.0000    0.35060   0.90080   0.83800   Biso      1.000     N          -0.101649           
         N14       1.0000    0.90710   0.35150   0.28550   Biso      1.000     N          -0.171881           
         N15       1.0000    0.85060   0.09920   0.83800   Biso      1.000     N          -0.10164  
         N16       1.0000    0.59290   0.14850   0.78550   Biso      1.000     N          -0.171936           
         O1        1.0000    0.60590   0.11790   0.97100   Biso      1.000     O          -0.544271           
         O2        1.0000    0.89410   0.38210   0.47100   Biso      1.000     O          -0.546473           
         O3        1.0000    0.60590   0.38210   0.47100   Biso      1.000     O          -0.546483           
         O4        1.0000    0.89410   0.11790   0.97100   Biso      1.000     O          -0.54427  
         O5        1.0000    0.39410   0.88210   0.97100   Biso      1.000     O          -0.544274           
         O6        1.0000    0.39410   0.61790   0.47100   Biso      1.000     O          -0.546483           
         O7        1.0000    0.10590   0.61790   0.47100   Biso      1.000     O          -0.546473           
         O8        1.0000    0.10590   0.88210   0.97100   Biso      1.000     O          -0.544271 