
##########################################################################
#               Crystallographic Information Format file
#               Produced by PyCifRW module
#
#  This is a CIF file.  CIF has been adopted by the International
#  Union of Crystallography as the standard for data archiving and
#  transmission.
#
#  For information on this file format, follow the CIF links at
#  http://www.iucr.org
##########################################################################

data_image0

_cell_length_a                          7.119
_cell_length_b                          21.58
_cell_length_c                          9.1
_cell_angle_alpha                       90
_cell_angle_beta                        90
_cell_angle_gamma                       90
_symmetry_space_group_name_H-M          'P 1'
_symmetry_int_tables_number             1
loop_
  _symmetry_equiv_pos_as_xyz
         'x, y, z' 
loop_
  _atom_site_label
  _atom_site_occupancy
  _atom_site_fract_x
  _atom_site_fract_y
  _atom_site_fract_z
  _atom_site_thermal_displace_type
  _atom_site_B_iso_or_equiv
  _atom_site_type_symbol
  _atom_site_charge
         C1        1.0000    0.33300   0.75080   0.77900   Biso      1.000     C          -0.130018           
         C2        1.0000    0.83300   0.74920   0.27900   Biso      1.000     C          -0.129621           
         C3        1.0000    0.66700   0.75080   0.77900   Biso      1.000     C          -0.130021           
         C4        1.0000    0.66780   0.69260   0.73610   Biso      1.000     C          -0.092721           
         C5        1.0000    0.16700   0.25080   0.27900   Biso      1.000     C          -0.129626           
         C6        1.0000    0.16780   0.19260   0.23610   Biso      1.000     C          -0.093103           
         C7        1.0000    0.50000   0.78440   0.80380   Biso      1.000     C          0.055925  
         C8        1.0000    0.50000   0.65670   0.71250   Biso      1.000     C          -0.055118           
         C9        1.0000    0.50000   0.59290   0.66920   Biso      1.000     C          0.682731  
         C10       1.0000    0.50000   0.84620   0.85350   Biso      1.000     C          0.198881  
         C11       1.0000    0.00000   0.28440   0.30380   Biso      1.000     C          0.055798  
         C12       1.0000    0.00000   0.15670   0.21250   Biso      1.000     C          -0.05064  
         C13       1.0000    0.00000   0.09290   0.16920   Biso      1.000     C          0.682036  
         C14       1.0000    0.00000   0.34620   0.35350   Biso      1.000     C          0.199701  
         C15       1.0000    0.50000   0.21560   0.80380   Biso      1.000     C          0.055917  
         C16       1.0000    0.50000   0.34330   0.71250   Biso      1.000     C          -0.055109           
         C17       1.0000    0.50000   0.40710   0.66920   Biso      1.000     C          0.682731  
         C18       1.0000    0.50000   0.15380   0.85350   Biso      1.000     C          0.198886  
         C19       1.0000    0.00000   0.71560   0.30380   Biso      1.000     C          0.055798  
         C20       1.0000    0.00000   0.84330   0.21250   Biso      1.000     C          -0.05064  
         C21       1.0000    0.00000   0.90710   0.16920   Biso      1.000     C          0.682036  
         C22       1.0000    0.00000   0.65380   0.35350   Biso      1.000     C          0.199701  
         C23       1.0000    0.33220   0.30740   0.73610   Biso      1.000     C          -0.092768           
         C24       1.0000    0.33300   0.24920   0.77900   Biso      1.000     C          -0.129977           
         C25       1.0000    0.83220   0.80740   0.23610   Biso      1.000     C          -0.093106           
         C26       1.0000    0.83220   0.19260   0.23610   Biso      1.000     C          -0.093145           
         C27       1.0000    0.66780   0.30740   0.73610   Biso      1.000     C          -0.09276  
         C28       1.0000    0.66700   0.24920   0.77900   Biso      1.000     C          -0.129982           
         C29       1.0000    0.16780   0.80740   0.23610   Biso      1.000     C          -0.093142           
         C30       1.0000    0.33220   0.69260   0.73610   Biso      1.000     C          -0.092728           
         C31       1.0000    0.16700   0.74920   0.27900   Biso      1.000     C          -0.129586           
         C32       1.0000    0.83300   0.25080   0.27900   Biso      1.000     C          -0.129582           
         Cu1       1.0000    0.25174   0.00000   0.03300   Biso      1.000     Cu          0.742058  
         Cu2       1.0000    0.75174   0.50000   0.53300   Biso      1.000     Cu          0.753432  
         Cu3       1.0000    0.74826   0.00000   0.03300   Biso      1.000     Cu          0.741959  
         Cu4       1.0000    0.24826   0.50000   0.53300   Biso      1.000     Cu          0.75347   
         H1        1.0000    0.28320   0.82650   0.22040   Biso      1.000     H          0.117522  
         H2        1.0000    0.21680   0.67350   0.72040   Biso      1.000     H          0.117103  
         H3        1.0000    0.71680   0.17350   0.22040   Biso      1.000     H          0.117524  
         H4        1.0000    0.21860   0.77070   0.79270   Biso      1.000     H          0.120666  
         H5        1.0000    0.78140   0.22930   0.79270   Biso      1.000     H          0.120668  
         H6        1.0000    0.28320   0.17350   0.22040   Biso      1.000     H          0.11752   
         H7        1.0000    0.78320   0.32650   0.72040   Biso      1.000     H          0.117099  
         H8        1.0000    0.71860   0.27070   0.29270   Biso      1.000     H          0.120682  
         H9        1.0000    0.78320   0.67350   0.72040   Biso      1.000     H          0.117096  
         H10       1.0000    0.28140   0.27070   0.29270   Biso      1.000     H          0.120688  
         H11       1.0000    0.21860   0.22930   0.79270   Biso      1.000     H          0.120665  
         H12       1.0000    0.28140   0.72930   0.29270   Biso      1.000     H          0.120686  
         H13       1.0000    0.78140   0.77070   0.79270   Biso      1.000     H          0.12067   
         H14       1.0000    0.21680   0.32650   0.72040   Biso      1.000     H          0.117105  
         H15       1.0000    0.71860   0.72930   0.29270   Biso      1.000     H          0.120685  
         H16       1.0000    0.71680   0.82650   0.22040   Biso      1.000     H          0.117522  
         N1        1.0000    0.39650   0.93480   0.93220   Biso      1.000     N          -0.104406           
         N2        1.0000    0.84320   0.61820   0.38450   Biso      1.000     N          -0.174204           
         N3        1.0000    0.60350   0.93480   0.93220   Biso      1.000     N          -0.104425           
         N4        1.0000    0.65680   0.88180   0.88450   Biso      1.000     N          -0.174065           
         N5        1.0000    0.60350   0.06520   0.93220   Biso      1.000     N          -0.104431           
         N6        1.0000    0.65680   0.11820   0.88450   Biso      1.000     N          -0.174066           
         N7        1.0000    0.10350   0.43480   0.43220   Biso      1.000     N          -0.108243           
         N8        1.0000    0.34320   0.11820   0.88450   Biso      1.000     N          -0.174114           
         N9        1.0000    0.15680   0.38180   0.38450   Biso      1.000     N          -0.17414  
         N10       1.0000    0.10350   0.56520   0.43220   Biso      1.000     N          -0.108243           
         N11       1.0000    0.15680   0.61820   0.38450   Biso      1.000     N          -0.174141           
         N12       1.0000    0.84320   0.38180   0.38450   Biso      1.000     N          -0.174204           
         N13       1.0000    0.89650   0.43480   0.43220   Biso      1.000     N          -0.108171           
         N14       1.0000    0.39650   0.06520   0.93220   Biso      1.000     N          -0.104344           
         N15       1.0000    0.34320   0.88180   0.88450   Biso      1.000     N          -0.174059           
         N16       1.0000    0.89650   0.56520   0.43220   Biso      1.000     N          -0.108171           
         O1        1.0000    0.64580   0.43180   0.65230   Biso      1.000     O          -0.550881           
         O2        1.0000    0.85420   0.06820   0.15230   Biso      1.000     O          -0.551137           
         O3        1.0000    0.64580   0.56820   0.65230   Biso      1.000     O          -0.550881           
         O4        1.0000    0.14580   0.93180   0.15230   Biso      1.000     O          -0.551156           
         O5        1.0000    0.35420   0.43180   0.65230   Biso      1.000     O          -0.550893           
         O6        1.0000    0.35420   0.56820   0.65230   Biso      1.000     O          -0.550894           
         O7        1.0000    0.85420   0.93180   0.15230   Biso      1.000     O          -0.551138           
         O8        1.0000    0.14580   0.06820   0.15230   Biso      1.000     O          -0.551158 