
##########################################################################
#               Crystallographic Information Format file
#               Produced by PyCifRW module
#
#  This is a CIF file.  CIF has been adopted by the International
#  Union of Crystallography as the standard for data archiving and
#  transmission.
#
#  For information on this file format, follow the CIF links at
#  http://www.iucr.org
##########################################################################

data_image0

_cell_length_a                          7.5273
_cell_length_b                          9.652
_cell_length_c                          22.106
_cell_angle_alpha                       90
_cell_angle_beta                        90
_cell_angle_gamma                       110.759
_symmetry_space_group_name_H-M          'P 1'
_symmetry_int_tables_number             1
loop_
  _symmetry_equiv_pos_as_xyz
         'x, y, z' 
loop_
  _atom_site_label
  _atom_site_occupancy
  _atom_site_fract_x
  _atom_site_fract_y
  _atom_site_fract_z
  _atom_site_thermal_displace_type
  _atom_site_B_iso_or_equiv
  _atom_site_type_symbol
  _atom_site_charge
         C1        1.0000    0.42970   0.46203   0.02137   Biso      1.000     C          0.09111699999999999           
         C2        1.0000    0.72070   0.96090   0.51550   Biso      1.000     C          -0.146835           
         C3        1.0000    0.31020   0.09160   0.42666   Biso      1.000     C          -0.11290399999999999          
         C4        1.0000    0.58530   0.00619   0.48498   Biso      1.000     C          0.085398  
         C5        1.0000    0.61410   0.06262   0.42524   Biso      1.000     C          -0.162923           
         C6        1.0000    0.47900   0.10260   0.39631   Biso      1.000     C          -0.027404           
         C7        1.0000    0.51770   0.16865   0.33371   Biso      1.000     C          0.616306  
         C8        1.0000    0.23930   0.43769   0.34522   Biso      1.000     C          0.595634  
         C9        1.0000    0.38590   0.93738   0.57476   Biso      1.000     C          -0.162918           
         C10       1.0000    0.81540   0.54460   0.05052   Biso      1.000     C          -0.11085199999999999          
         C11       1.0000    0.48790   0.42857   0.07910   Biso      1.000     C          -0.17063599999999998          
         C12       1.0000    0.67550   0.46987   0.09373   Biso      1.000     C          -0.022501           
         C13       1.0000    0.73930   0.43769   0.15478   Biso      1.000     C          0.595637  
         C14       1.0000    0.77930   0.03910   0.01550   Biso      1.000     C          -0.146847           
         C15       1.0000    0.18980   0.90840   0.92666   Biso      1.000     C          -0.112917           
         C16       1.0000    0.76360   0.57720   0.99454   Biso      1.000     C          -0.13196300000000002          
         C17       1.0000    0.91470   0.99381   0.98498   Biso      1.000     C          0.085393  
         C18       1.0000    0.17550   0.46987   0.40627   Biso      1.000     C          -0.022507           
         C19       1.0000    0.31540   0.54460   0.44948   Biso      1.000     C          -0.11085  
         C20       1.0000    0.57030   0.53797   0.97863   Biso      1.000     C          0.09110800000000001           
         C21       1.0000    0.23640   0.42280   0.00546   Biso      1.000     C          -0.131955           
         C22       1.0000    0.18460   0.45540   0.94948   Biso      1.000     C          -0.110855           
         C23       1.0000    0.51210   0.57143   0.92090   Biso      1.000     C          -0.170631           
         C24       1.0000    0.32450   0.53013   0.90627   Biso      1.000     C          -0.022519           
         C25       1.0000    0.26070   0.56231   0.84522   Biso      1.000     C          0.595647  
         C26       1.0000    0.98790   0.42857   0.42090   Biso      1.000     C          -0.170621           
         C27       1.0000    0.22070   0.96090   0.98450   Biso      1.000     C          -0.146829           
         C28       1.0000    0.08530   0.00619   0.01502   Biso      1.000     C          0.085397  
         C29       1.0000    0.11410   0.06262   0.07476   Biso      1.000     C          -0.162924           
         C30       1.0000    0.97900   0.10260   0.10369   Biso      1.000     C          -0.027407           
         C31       1.0000    0.01770   0.16865   0.16629   Biso      1.000     C          0.616305  
         C32       1.0000    0.92970   0.46203   0.47863   Biso      1.000     C          0.091116  
         C33       1.0000    0.26360   0.57720   0.50546   Biso      1.000     C          -0.13196300000000002          
         C34       1.0000    0.81020   0.09160   0.07334   Biso      1.000     C          -0.112897           
         C35       1.0000    0.88590   0.93738   0.92524   Biso      1.000     C          -0.162919           
         C36       1.0000    0.02100   0.89740   0.89631   Biso      1.000     C          -0.027425           
         C37       1.0000    0.98230   0.83135   0.83371   Biso      1.000     C          0.616325  
         C38       1.0000    0.27930   0.03910   0.48450   Biso      1.000     C          -0.14684  
         C39       1.0000    0.68980   0.90840   0.57334   Biso      1.000     C          -0.11291  
         C40       1.0000    0.41470   0.99381   0.51502   Biso      1.000     C          0.085391  
         C41       1.0000    0.48230   0.83135   0.66629   Biso      1.000     C          0.616329  
         C42       1.0000    0.76070   0.56231   0.65478   Biso      1.000     C          0.595653  
         C43       1.0000    0.52100   0.89740   0.60369   Biso      1.000     C          -0.027424           
         C44       1.0000    0.07030   0.53797   0.52137   Biso      1.000     C          0.09111   
         C45       1.0000    0.73640   0.42280   0.49454   Biso      1.000     C          -0.131954           
         C46       1.0000    0.68460   0.45540   0.55052   Biso      1.000     C          -0.11085199999999999          
         C47       1.0000    0.01210   0.57143   0.57910   Biso      1.000     C          -0.170638           
         C48       1.0000    0.82450   0.53013   0.59373   Biso      1.000     C          -0.022522           
         H1        1.0000    0.16750   0.03300   0.50410   Biso      1.000     H          0.11386700000000001           
         H2        1.0000    0.10350   0.62240   0.60730   Biso      1.000     H          0.115969  
         H3        1.0000    0.55660   0.42840   0.56030   Biso      1.000     H          0.12197999999999999           
         H4        1.0000    0.64290   0.37400   0.46650   Biso      1.000     H          0.11686400000000001           
         H5        1.0000    0.77310   0.92730   0.90530   Biso      1.000     H          0.131163  
         H6        1.0000    0.28070   0.87980   0.90720   Biso      1.000     H          0.120028  
         H7        1.0000    0.66750   0.03300   0.99590   Biso      1.000     H          0.11386700000000001           
         H8        1.0000    0.39650   0.37760   0.10730   Biso      1.000     H          0.11598399999999999           
         H9        1.0000    0.94340   0.57160   0.06030   Biso      1.000     H          0.12198099999999999           
         H10       1.0000    0.85710   0.62600   0.96650   Biso      1.000     H          0.116851  
         H11       1.0000    0.72690   0.07270   0.40530   Biso      1.000     H          0.131168  
         H12       1.0000    0.83250   0.96700   0.49590   Biso      1.000     H          0.113874  
         H13       1.0000    0.89650   0.37760   0.39270   Biso      1.000     H          0.11598800000000001           
         H14       1.0000    0.35710   0.62600   0.53350   Biso      1.000     H          0.116853  
         H15       1.0000    0.22690   0.07270   0.09470   Biso      1.000     H          0.131168  
         H16       1.0000    0.71930   0.12020   0.09280   Biso      1.000     H          0.120038  
         H17       1.0000    0.33250   0.96700   0.00410   Biso      1.000     H          0.113873  
         H18       1.0000    0.60350   0.62240   0.89270   Biso      1.000     H          0.115973  
         H19       1.0000    0.05660   0.42840   0.93970   Biso      1.000     H          0.121977  
         H20       1.0000    0.14290   0.37400   0.03350   Biso      1.000     H          0.116862  
         H21       1.0000    0.27310   0.92730   0.59470   Biso      1.000     H          0.131161  
         H22       1.0000    0.78070   0.87980   0.59280   Biso      1.000     H          0.120028  
         H23       1.0000    0.21930   0.12020   0.40720   Biso      1.000     H          0.120039  
         H24       1.0000    0.44340   0.57160   0.43970   Biso      1.000     H          0.121984  
         Mn1       1.0000    0.63094   0.65031   0.75367   Biso      1.000     Mn          1.021583  
         Mn2       1.0000    0.13094   0.65031   0.74633   Biso      1.000     Mn          1.02183   
         Mn3       1.0000    0.36906   0.34969   0.24633   Biso      1.000     Mn          1.021623  
         Mn4       1.0000    0.86906   0.34969   0.25367   Biso      1.000     Mn          1.021406  
         O1        1.0000    0.08752   0.52099   0.83404   Biso      1.000     O          -0.532798           
         O2        1.0000    0.38320   0.63428   0.80588   Biso      1.000     O          -0.600302           
         O3        1.0000    0.87977   0.17927   0.19505   Biso      1.000     O          -0.546143           
         O4        1.0000    0.18529   0.20701   0.18464   Biso      1.000     O          -0.5646899999999999           
         O5        1.0000    0.41248   0.47901   0.33404   Biso      1.000     O          -0.532805           
         O6        1.0000    0.11680   0.36572   0.30588   Biso      1.000     O          -0.60027  
         O7        1.0000    0.37977   0.17927   0.30495   Biso      1.000     O          -0.5461630000000001           
         O8        1.0000    0.68529   0.20701   0.31536   Biso      1.000     O          -0.564664           
         O9        1.0000    0.91248   0.47901   0.16596   Biso      1.000     O          -0.532788           
         O10       1.0000    0.61680   0.36572   0.19412   Biso      1.000     O          -0.6002890000000001           
         O11       1.0000    0.12023   0.82073   0.80495   Biso      1.000     O          -0.546171           
         O12       1.0000    0.81471   0.79299   0.81536   Biso      1.000     O          -0.5646770000000001           
         O13       1.0000    0.58752   0.52099   0.66596   Biso      1.000     O          -0.532778           
         O14       1.0000    0.88320   0.63428   0.69412   Biso      1.000     O          -0.60032  
         O15       1.0000    0.31471   0.79299   0.68464   Biso      1.000     O          -0.564697           
         O16       1.0000    0.62023   0.82073   0.69505   Biso      1.000     O          -0.54615 