
##########################################################################
#               Crystallographic Information Format file
#               Produced by PyCifRW module
#
#  This is a CIF file.  CIF has been adopted by the International
#  Union of Crystallography as the standard for data archiving and
#  transmission.
#
#  For information on this file format, follow the CIF links at
#  http://www.iucr.org
##########################################################################

data_image0

_cell_length_a                          10.3014
_cell_length_b                          14.4176
_cell_length_c                          17.507
_cell_angle_alpha                       90
_cell_angle_beta                        94.809
_cell_angle_gamma                       90
_symmetry_space_group_name_H-M          'P 1'
_symmetry_int_tables_number             1
loop_
  _symmetry_equiv_pos_as_xyz
         'x, y, z' 
loop_
  _atom_site_label
  _atom_site_occupancy
  _atom_site_fract_x
  _atom_site_fract_y
  _atom_site_fract_z
  _atom_site_thermal_displace_type
  _atom_site_B_iso_or_equiv
  _atom_site_type_symbol
  _atom_site_charge
         C1        1.0000    0.28380   0.32160   0.14230   Biso      1.000     C          0.6518729999999999  
         C2        1.0000    0.81790   0.60060   0.27120   Biso      1.000     C          -0.101177           
         C3        1.0000    0.74530   0.56650   0.20620   Biso      1.000     C          -0.101939           
         C4        1.0000    0.81800   0.69510   0.27500   Biso      1.000     C          -0.100437           
         C5        1.0000    0.69100   0.63630   0.16030   Biso      1.000     C          -0.14291800000000002          
         C6        1.0000    0.62140   0.11290   0.83010   Biso      1.000     C          -0.136364           
         C7        1.0000    0.11640   0.29320   0.32280   Biso      1.000     C          -0.134466           
         C8        1.0000    0.61400   0.62850   0.08570   Biso      1.000     C          0.65754   
         C9        1.0000    0.17140   0.26110   0.25730   Biso      1.000     C          -0.12198699999999998          
         C10       1.0000    0.07210   0.44640   0.39100   Biso      1.000     C          0.66882   
         C11       1.0000    0.37930   0.74090   0.83410   Biso      1.000     C          0.624708  
         C12       1.0000    0.11400   0.87150   0.58570   Biso      1.000     C          0.65754   
         C13       1.0000    0.31790   0.89940   0.77120   Biso      1.000     C          -0.101177           
         C14       1.0000    0.24530   0.93350   0.70620   Biso      1.000     C          -0.101939           
         C15       1.0000    0.31800   0.80490   0.77500   Biso      1.000     C          -0.100437           
         C16       1.0000    0.21900   0.33040   0.21520   Biso      1.000     C          -0.11549300000000001          
         C17       1.0000    0.19100   0.86370   0.66030   Biso      1.000     C          -0.14291900000000002          
         C18       1.0000    0.87930   0.75910   0.33410   Biso      1.000     C          0.624708  
         C19       1.0000    0.71900   0.16960   0.71520   Biso      1.000     C          -0.115505           
         C20       1.0000    0.88360   0.70680   0.67720   Biso      1.000     C          -0.134466           
         C21       1.0000    0.82860   0.73890   0.74270   Biso      1.000     C          -0.12198699999999998          
         C22       1.0000    0.78100   0.66960   0.78480   Biso      1.000     C          -0.11549300000000001          
         C23       1.0000    0.92790   0.55360   0.60900   Biso      1.000     C          0.66882   
         C24       1.0000    0.62070   0.25910   0.16590   Biso      1.000     C          0.624708  
         C25       1.0000    0.88600   0.12850   0.41430   Biso      1.000     C          0.65754   
         C26       1.0000    0.57210   0.05360   0.89100   Biso      1.000     C          0.66882   
         C27       1.0000    0.68210   0.10060   0.22880   Biso      1.000     C          -0.101177           
         C28       1.0000    0.68200   0.19510   0.22500   Biso      1.000     C          -0.100437           
         C29       1.0000    0.80900   0.13630   0.33970   Biso      1.000     C          -0.142921           
         C30       1.0000    0.87860   0.61290   0.66990   Biso      1.000     C          -0.136364           
         C31       1.0000    0.78380   0.17840   0.64230   Biso      1.000     C          0.651874  
         C32       1.0000    0.61640   0.20680   0.82280   Biso      1.000     C          -0.134467           
         C33       1.0000    0.67140   0.23890   0.75730   Biso      1.000     C          -0.121976           
         C34       1.0000    0.75470   0.06650   0.29380   Biso      1.000     C          -0.101936           
         C35       1.0000    0.12140   0.38710   0.33010   Biso      1.000     C          -0.136364           
         C36       1.0000    0.71620   0.67840   0.85770   Biso      1.000     C          0.6518729999999999  
         C37       1.0000    0.12070   0.24090   0.66590   Biso      1.000     C          0.624708  
         C38       1.0000    0.18210   0.39940   0.72880   Biso      1.000     C          -0.101177           
         C39       1.0000    0.38600   0.37150   0.91430   Biso      1.000     C          0.65754   
         C40       1.0000    0.42790   0.94640   0.10900   Biso      1.000     C          0.66882   
         C41       1.0000    0.28100   0.83040   0.28480   Biso      1.000     C          -0.115505           
         C42       1.0000    0.32860   0.76110   0.24270   Biso      1.000     C          -0.121976           
         C43       1.0000    0.18200   0.30490   0.72500   Biso      1.000     C          -0.100437           
         C44       1.0000    0.30900   0.36370   0.83970   Biso      1.000     C          -0.142921           
         C45       1.0000    0.38360   0.79320   0.17720   Biso      1.000     C          -0.134467           
         C46       1.0000    0.21620   0.82160   0.35770   Biso      1.000     C          0.651874  
         C47       1.0000    0.37860   0.88710   0.16990   Biso      1.000     C          -0.136364           
         C48       1.0000    0.25470   0.43350   0.79380   Biso      1.000     C          -0.101936           
         Ca1       1.0000    0.53044   0.39147   0.05897   Biso      1.000     Ca          1.3981700000000001  
         Ca2       1.0000    0.46956   0.60853   0.94103   Biso      1.000     Ca          1.398169  
         Ca3       1.0000    0.61070   0.84438   0.97221   Biso      1.000     Ca          1.482458  
         Ca4       1.0000    0.38930   0.15562   0.02779   Biso      1.000     Ca          1.482458  
         Ca5       1.0000    0.88930   0.34438   0.52779   Biso      1.000     Ca          1.482458  
         Ca6       1.0000    0.03044   0.10853   0.55897   Biso      1.000     Ca          1.398169  
         Ca7       1.0000    0.11070   0.65562   0.47221   Biso      1.000     Ca          1.482458  
         Ca8       1.0000    0.96956   0.89147   0.44103   Biso      1.000     Ca          1.398169  
         H1        1.0000    0.91980   0.74570   0.64220   Biso      1.000     H          0.120326  
         H2        1.0000    0.23480   0.99630   0.69510   Biso      1.000     H          0.135755  
         H3        1.0000    0.86160   0.56280   0.30790   Biso      1.000     H          0.13853800000000002           
         H4        1.0000    0.67500   0.30120   0.74390   Biso      1.000     H          0.135042  
         H5        1.0000    0.26520   0.49630   0.80490   Biso      1.000     H          0.13575399999999999           
         H6        1.0000    0.73480   0.50370   0.19510   Biso      1.000     H          0.13575399999999999           
         H7        1.0000    0.82500   0.80120   0.75610   Biso      1.000     H          0.135043  
         H8        1.0000    0.13840   0.43720   0.69210   Biso      1.000     H          0.13853800000000002           
         H9        1.0000    0.32500   0.69880   0.25610   Biso      1.000     H          0.135042  
         H10       1.0000    0.41980   0.75430   0.14220   Biso      1.000     H          0.120326  
         H11       1.0000    0.36160   0.93720   0.80790   Biso      1.000     H          0.13853800000000002           
         H12       1.0000    0.58020   0.24570   0.85780   Biso      1.000     H          0.120326  
         H13       1.0000    0.17500   0.19880   0.24390   Biso      1.000     H          0.135043  
         H14       1.0000    0.76520   0.00370   0.30490   Biso      1.000     H          0.13575399999999999           
         H15       1.0000    0.63840   0.06280   0.19210   Biso      1.000     H          0.13853800000000002           
         H16       1.0000    0.08020   0.25430   0.35780   Biso      1.000     H          0.120326  
         O1        1.0000    0.06500   0.27389   0.60474   Biso      1.000     O          -0.684091           
         O2        1.0000    0.72470   0.75560   0.89012   Biso      1.000     O          -0.664646           
         O3        1.0000    0.66120   0.60800   0.88117   Biso      1.000     O          -0.6610189999999999           
         O4        1.0000    0.89960   0.46970   0.60969   Biso      1.000     O          -0.662205           
         O5        1.0000    0.42850   0.45080   0.93552   Biso      1.000     O          -0.685762           
         O6        1.0000    0.90930   0.19954   0.45469   Biso      1.000     O          -0.68434  
         O7        1.0000    0.63040   0.34390   0.17923   Biso      1.000     O          -0.613984           
         O8        1.0000    0.56500   0.22611   0.10474   Biso      1.000     O          -0.684091           
         O9        1.0000    0.92850   0.04920   0.43552   Biso      1.000     O          -0.685762           
         O10       1.0000    0.40930   0.30046   0.95469   Biso      1.000     O          -0.68434  
         O11       1.0000    0.13040   0.15610   0.67923   Biso      1.000     O          -0.613984           
         O12       1.0000    0.36960   0.65610   0.82077   Biso      1.000     O          -0.613984           
         O13       1.0000    0.22470   0.74440   0.39012   Biso      1.000     O          -0.664646           
         O14       1.0000    0.09070   0.80046   0.54531   Biso      1.000     O          -0.68434  
         O15       1.0000    0.43500   0.77389   0.89526   Biso      1.000     O          -0.684091           
         O16       1.0000    0.27530   0.24440   0.10988   Biso      1.000     O          -0.664646           
         O17       1.0000    0.10040   0.53030   0.39031   Biso      1.000     O          -0.662205           
         O18       1.0000    0.33880   0.39200   0.11883   Biso      1.000     O          -0.6610189999999999           
         O19       1.0000    0.49240   0.90680   0.06158   Biso      1.000     O          -0.6896869999999999           
         O20       1.0000    0.00760   0.40680   0.43842   Biso      1.000     O          -0.6896869999999999           
         O21       1.0000    0.99240   0.59320   0.56158   Biso      1.000     O          -0.6896869999999999           
         O22       1.0000    0.50760   0.09320   0.93842   Biso      1.000     O          -0.6896869999999999           
         O23       1.0000    0.60040   0.96970   0.89031   Biso      1.000     O          -0.662205           
         O24       1.0000    0.39960   0.03030   0.10969   Biso      1.000     O          -0.662205           
         O25       1.0000    0.83880   0.10800   0.61883   Biso      1.000     O          -0.661018           
         O26       1.0000    0.86960   0.84390   0.32077   Biso      1.000     O          -0.613984           
         O27       1.0000    0.57150   0.54920   0.06448   Biso      1.000     O          -0.685762           
         O28       1.0000    0.93500   0.72611   0.39526   Biso      1.000     O          -0.684091           
         O29       1.0000    0.16120   0.89200   0.38117   Biso      1.000     O          -0.6610189999999999           
         O30       1.0000    0.77530   0.25560   0.60988   Biso      1.000     O          -0.664646           
         O31       1.0000    0.07150   0.95080   0.56448   Biso      1.000     O          -0.685762           
         O32       1.0000    0.59070   0.69954   0.04531   Biso      1.000     O          -0.68434  
         S1        1.0000    0.19669   0.43693   0.25612   Biso      1.000     S          0.131029  
         S2        1.0000    0.22877   0.75660   0.69809   Biso      1.000     S          0.156255  
         S3        1.0000    0.69669   0.06307   0.75612   Biso      1.000     S          0.13103   
         S4        1.0000    0.30331   0.93693   0.24388   Biso      1.000     S          0.13103   
         S5        1.0000    0.80331   0.56307   0.74388   Biso      1.000     S          0.131029  
         S6        1.0000    0.72877   0.74340   0.19809   Biso      1.000     S          0.156255  
         S7        1.0000    0.27123   0.25660   0.80191   Biso      1.000     S          0.156255  
         S8        1.0000    0.77123   0.24340   0.30191   Biso      1.000     S          0.156255 