
##########################################################################
#               Crystallographic Information Format file
#               Produced by PyCifRW module
#
#  This is a CIF file.  CIF has been adopted by the International
#  Union of Crystallography as the standard for data archiving and
#  transmission.
#
#  For information on this file format, follow the CIF links at
#  http://www.iucr.org
##########################################################################

data_image0

_cell_length_a                          26.2885
_cell_length_b                          26.2885
_cell_length_c                          7.0608
_cell_angle_alpha                       90
_cell_angle_beta                        90
_cell_angle_gamma                       120
_symmetry_space_group_name_H-M          'P 1'
_symmetry_int_tables_number             1
loop_
  _symmetry_equiv_pos_as_xyz
         'x, y, z' 
loop_
  _atom_site_label
  _atom_site_occupancy
  _atom_site_fract_x
  _atom_site_fract_y
  _atom_site_fract_z
  _atom_site_thermal_displace_type
  _atom_site_B_iso_or_equiv
  _atom_site_type_symbol
  _atom_site_charge
         C1        1.0000    0.20877   0.88753   0.24633   Biso      1.000     C          0.311128  
         C2        1.0000    0.24387   0.31773   0.09233   Biso      1.000     C          0.637072  
         C3        1.0000    0.32643   0.12097   0.77667   Biso      1.000     C          -0.145576           
         C4        1.0000    0.48830   0.98330   0.81000   Biso      1.000     C          -0.20904099999999998          
         C5        1.0000    0.21237   0.87213   0.44333   Biso      1.000     C          -0.144809           
         C6        1.0000    0.51170   0.01670   0.19000   Biso      1.000     C          -0.20904099999999998          
         C7        1.0000    0.55420   0.01210   0.08700   Biso      1.000     C          0.311562  
         C8        1.0000    0.53880   0.99310   0.89000   Biso      1.000     C          -0.144182           
         C9        1.0000    0.20547   0.32643   0.22333   Biso      1.000     C          -0.145618           
         C10       1.0000    0.57720   0.98440   0.75900   Biso      1.000     C          0.636767  
         C11       1.0000    0.35003   0.17167   0.47667   Biso      1.000     C          -0.207341           
         C12       1.0000    0.83833   0.15497   0.85667   Biso      1.000     C          -0.207467           
         C13       1.0000    0.79123   0.11247   0.75367   Biso      1.000     C          0.31113   
         C14       1.0000    0.78763   0.12787   0.55667   Biso      1.000     C          -0.144809           
         C15       1.0000    0.65977   0.78763   0.44333   Biso      1.000     C          -0.145307           
         C16       1.0000    0.08947   0.34893   0.57433   Biso      1.000     C          0.6376350000000001  
         C17       1.0000    0.12787   0.34023   0.44333   Biso      1.000     C          -0.14487  
         C18       1.0000    0.34543   0.12457   0.57967   Biso      1.000     C          0.31112399999999996           
         C19       1.0000    0.22087   0.34543   0.42033   Biso      1.000     C          0.310729  
         C20       1.0000    0.17837   0.35003   0.52333   Biso      1.000     C          -0.20727800000000002          
         C21       1.0000    0.44580   0.98790   0.91300   Biso      1.000     C          0.311562  
         C22       1.0000    0.65107   0.74053   0.57433   Biso      1.000     C          0.637905  
         C23       1.0000    0.68337   0.83833   0.14333   Biso      1.000     C          -0.20761999999999997          
         C24       1.0000    0.82833   0.17837   0.47667   Biso      1.000     C          -0.207328           
         C25       1.0000    0.01670   0.50500   0.81000   Biso      1.000     C          -0.20904699999999998          
         C26       1.0000    0.01210   0.45790   0.91300   Biso      1.000     C          0.311571  
         C27       1.0000    0.99310   0.45430   0.11000   Biso      1.000     C          -0.144201           
         C28       1.0000    0.98440   0.40720   0.24100   Biso      1.000     C          0.636789  
         C29       1.0000    0.87543   0.22087   0.57967   Biso      1.000     C          0.310975  
         C30       1.0000    0.87903   0.20547   0.77667   Biso      1.000     C          -0.14555  
         C31       1.0000    0.92613   0.24387   0.90767   Biso      1.000     C          0.636901  
         C32       1.0000    0.84503   0.68337   0.85667   Biso      1.000     C          -0.20740300000000003          
         C33       1.0000    0.88753   0.67877   0.75367   Biso      1.000     C          0.311121  
         C34       1.0000    0.87213   0.65977   0.55667   Biso      1.000     C          -0.14487  
         C35       1.0000    0.91053   0.65107   0.42567   Biso      1.000     C          0.6376350000000001  
         C36       1.0000    0.31773   0.07387   0.90767   Biso      1.000     C          0.637405  
         C37       1.0000    0.42280   0.01560   0.24100   Biso      1.000     C          0.636767  
         C38       1.0000    0.46120   0.00690   0.11000   Biso      1.000     C          -0.144182           
         C39       1.0000    0.11247   0.32123   0.24633   Biso      1.000     C          0.311116  
         C40       1.0000    0.17167   0.82163   0.52333   Biso      1.000     C          -0.207328           
         C41       1.0000    0.74053   0.08947   0.42567   Biso      1.000     C          0.637705  
         C42       1.0000    0.34893   0.25947   0.42567   Biso      1.000     C          0.6379020000000001  
         C43       1.0000    0.34023   0.21237   0.55667   Biso      1.000     C          -0.14528  
         C44       1.0000    0.12457   0.77913   0.42033   Biso      1.000     C          0.310975  
         C45       1.0000    0.16167   0.84503   0.14333   Biso      1.000     C          -0.207465           
         C46       1.0000    0.75613   0.68227   0.90767   Biso      1.000     C          0.63707   
         C47       1.0000    0.79453   0.67357   0.77667   Biso      1.000     C          -0.145592           
         C48       1.0000    0.77913   0.65457   0.57967   Biso      1.000     C          0.310727  
         C49       1.0000    0.64997   0.82833   0.52333   Biso      1.000     C          -0.207314           
         C50       1.0000    0.32123   0.20877   0.75367   Biso      1.000     C          0.311446  
         C51       1.0000    0.65457   0.87543   0.42033   Biso      1.000     C          0.311119  
         C52       1.0000    0.68227   0.92613   0.09233   Biso      1.000     C          0.637402  
         C53       1.0000    0.82163   0.64997   0.47667   Biso      1.000     C          -0.20727800000000002          
         C54       1.0000    0.25947   0.91053   0.57433   Biso      1.000     C          0.637705  
         C55       1.0000    0.98330   0.49500   0.19000   Biso      1.000     C          -0.20902300000000001          
         C56       1.0000    0.98790   0.54210   0.08700   Biso      1.000     C          0.311566  
         C57       1.0000    0.00690   0.54570   0.89000   Biso      1.000     C          -0.144176           
         C58       1.0000    0.01560   0.59280   0.75900   Biso      1.000     C          0.636787  
         C59       1.0000    0.67357   0.87903   0.22333   Biso      1.000     C          -0.14555099999999999          
         C60       1.0000    0.31663   0.16167   0.85667   Biso      1.000     C          -0.20759299999999997          
         C61       1.0000    0.67877   0.79123   0.24633   Biso      1.000     C          0.31145300000000004           
         C62       1.0000    0.45430   0.46120   0.89000   Biso      1.000     C          -0.144205           
         C63       1.0000    0.15497   0.31663   0.14333   Biso      1.000     C          -0.207375           
         C64       1.0000    0.50500   0.48830   0.19000   Biso      1.000     C          -0.209048           
         C65       1.0000    0.45790   0.44580   0.08700   Biso      1.000     C          0.311575  
         C66       1.0000    0.40720   0.42280   0.75900   Biso      1.000     C          0.636771  
         C67       1.0000    0.54570   0.53880   0.11000   Biso      1.000     C          -0.144181           
         C68       1.0000    0.49500   0.51170   0.81000   Biso      1.000     C          -0.209024           
         C69       1.0000    0.59280   0.57720   0.24100   Biso      1.000     C          0.6367689999999999  
         C70       1.0000    0.07387   0.75613   0.09233   Biso      1.000     C          0.636901  
         C71       1.0000    0.12097   0.79453   0.22333   Biso      1.000     C          -0.14555  
         C72       1.0000    0.54210   0.55420   0.91300   Biso      1.000     C          0.311571  
         H1        1.0000    0.83083   0.19160   0.32943   Biso      1.000     H          0.130857  
         H2        1.0000    0.14174   0.30590   0.99609   Biso      1.000     H          0.131208  
         H3        1.0000    0.69410   0.83583   0.99609   Biso      1.000     H          0.131254  
         H4        1.0000    0.02743   0.50250   0.66276   Biso      1.000     H          0.131524  
         H5        1.0000    0.97257   0.49750   0.33724   Biso      1.000     H          0.131523  
         H6        1.0000    0.80840   0.63924   0.32943   Biso      1.000     H          0.130885  
         H7        1.0000    0.47507   0.97257   0.66276   Biso      1.000     H          0.131528  
         H8        1.0000    0.85826   0.69410   0.00391   Biso      1.000     H          0.13121   
         H9        1.0000    0.49750   0.52493   0.66276   Biso      1.000     H          0.131523  
         H10       1.0000    0.50250   0.47507   0.33724   Biso      1.000     H          0.131525  
         H11       1.0000    0.83583   0.14174   0.00391   Biso      1.000     H          0.131215  
         H12       1.0000    0.63924   0.83083   0.67057   Biso      1.000     H          0.130934  
         H13       1.0000    0.36076   0.16917   0.32943   Biso      1.000     H          0.130936  
         H14       1.0000    0.19160   0.36076   0.67057   Biso      1.000     H          0.130885  
         H15       1.0000    0.52493   0.02743   0.33724   Biso      1.000     H          0.131528  
         H16       1.0000    0.30590   0.16417   0.00391   Biso      1.000     H          0.131253  
         H17       1.0000    0.16417   0.85826   0.99609   Biso      1.000     H          0.131215  
         H18       1.0000    0.16917   0.80840   0.67057   Biso      1.000     H          0.130857  
         Mn1       1.0000    0.30127   0.01703   0.31133   Biso      1.000     Mn          1.027659  
         Mn2       1.0000    0.96793   0.35037   0.64467   Biso      1.000     Mn          1.027084  
         Mn3       1.0000    0.63460   0.68370   0.97800   Biso      1.000     Mn          1.027374  
         Mn4       1.0000    0.38243   0.03207   0.64467   Biso      1.000     Mn          1.027021  
         Mn5       1.0000    0.95090   0.63460   0.02200   Biso      1.000     Mn          1.027364  
         Mn6       1.0000    0.28423   0.30127   0.68867   Biso      1.000     Mn          1.027593  
         Mn7       1.0000    0.03207   0.64963   0.35533   Biso      1.000     Mn          1.027084  
         Mn8       1.0000    0.69873   0.98297   0.68867   Biso      1.000     Mn          1.027659  
         Mn9       1.0000    0.71577   0.69873   0.31133   Biso      1.000     Mn          1.027593  
         Mn10      1.0000    0.98297   0.28423   0.31133   Biso      1.000     Mn          1.027677  
         Mn11      1.0000    0.64963   0.61757   0.64467   Biso      1.000     Mn          1.026936  
         Mn12      1.0000    0.68370   0.04910   0.02200   Biso      1.000     Mn          1.027303  
         Mn13      1.0000    0.36540   0.31630   0.02200   Biso      1.000     Mn          1.027374  
         Mn14      1.0000    0.01703   0.71577   0.68867   Biso      1.000     Mn          1.027677  
         Mn15      1.0000    0.31630   0.95090   0.97800   Biso      1.000     Mn          1.027303  
         Mn16      1.0000    0.61757   0.96793   0.35533   Biso      1.000     Mn          1.027021  
         Mn17      1.0000    0.04910   0.36540   0.97800   Biso      1.000     Mn          1.027364  
         Mn18      1.0000    0.35037   0.38243   0.35533   Biso      1.000     Mn          1.026936  
         O1        1.0000    0.06057   0.31063   0.19433   Biso      1.000     O          -0.58941  
         O2        1.0000    0.25907   0.89713   0.74733   Biso      1.000     O          -0.559793           
         O3        1.0000    0.76953   0.69527   0.08067   Biso      1.000     O          -0.559431           
         O4        1.0000    0.92573   0.23047   0.08067   Biso      1.000     O          -0.559307           
         O5        1.0000    0.30127   0.96343   0.53233   Biso      1.000     O          -0.605796           
         O6        1.0000    0.10287   0.36193   0.74733   Biso      1.000     O          -0.559768           
         O7        1.0000    0.25007   0.93943   0.19433   Biso      1.000     O          -0.589398           
         O8        1.0000    0.39390   0.97730   0.86100   Biso      1.000     O          -0.589109           
         O9        1.0000    0.36990   0.00450   0.19900   Biso      1.000     O          -0.605499           
         O10       1.0000    0.91673   0.27277   0.52767   Biso      1.000     O          -0.588677           
         O11       1.0000    0.96793   0.29677   0.86567   Biso      1.000     O          -0.605395           
         O12       1.0000    0.03657   0.33783   0.53233   Biso      1.000     O          -0.605821           
         O13       1.0000    0.43620   0.02860   0.41400   Biso      1.000     O          -0.559233           
         O14       1.0000    0.93943   0.68937   0.80567   Biso      1.000     O          -0.58941  
         O15       1.0000    0.63460   0.63010   0.19900   Biso      1.000     O          -0.6055189999999999           
         O16       1.0000    0.74093   0.10287   0.25267   Biso      1.000     O          -0.559793           
         O17       1.0000    0.08327   0.72723   0.47233   Biso      1.000     O          -0.588677           
         O18       1.0000    0.03207   0.70323   0.13433   Biso      1.000     O          -0.605395           
         O19       1.0000    0.07427   0.76953   0.91933   Biso      1.000     O          -0.559307           
         O20       1.0000    0.41660   0.39390   0.13900   Biso      1.000     O          -0.589167           
         O21       1.0000    0.36540   0.36990   0.80100   Biso      1.000     O          -0.6055189999999999           
         O22       1.0000    0.40760   0.43620   0.58600   Biso      1.000     O          -0.559233           
         O23       1.0000    0.69873   0.03657   0.46767   Biso      1.000     O          -0.605796           
         O24       1.0000    0.31063   0.25007   0.80567   Biso      1.000     O          -0.589497           
         O25       1.0000    0.36193   0.25907   0.25267   Biso      1.000     O          -0.559843           
         O26       1.0000    0.64397   0.91673   0.47233   Biso      1.000     O          -0.588803           
         O27       1.0000    0.67117   0.96793   0.13433   Biso      1.000     O          -0.605621           
         O28       1.0000    0.69527   0.92573   0.91933   Biso      1.000     O          -0.559561           
         O29       1.0000    0.97730   0.58340   0.13900   Biso      1.000     O          -0.589159           
         O30       1.0000    0.00450   0.63460   0.80100   Biso      1.000     O          -0.605553           
         O31       1.0000    0.02860   0.59240   0.58600   Biso      1.000     O          -0.559227           
         O32       1.0000    0.33783   0.30127   0.46767   Biso      1.000     O          -0.605686           
         O33       1.0000    0.74993   0.06057   0.80567   Biso      1.000     O          -0.589398           
         O34       1.0000    0.56380   0.97140   0.58600   Biso      1.000     O          -0.559233           
         O35       1.0000    0.63010   0.99550   0.80100   Biso      1.000     O          -0.605499           
         O36       1.0000    0.59240   0.56380   0.41400   Biso      1.000     O          -0.559232           
         O37       1.0000    0.35603   0.08327   0.52767   Biso      1.000     O          -0.588803           
         O38       1.0000    0.32883   0.03207   0.86567   Biso      1.000     O          -0.605621           
         O39       1.0000    0.30473   0.07427   0.08067   Biso      1.000     O          -0.559562           
         O40       1.0000    0.68937   0.74993   0.19433   Biso      1.000     O          -0.589497           
         O41       1.0000    0.66217   0.69873   0.53233   Biso      1.000     O          -0.605686           
         O42       1.0000    0.63807   0.74093   0.74733   Biso      1.000     O          -0.559843           
         O43       1.0000    0.02270   0.41660   0.86100   Biso      1.000     O          -0.589159           
         O44       1.0000    0.99550   0.36540   0.19900   Biso      1.000     O          -0.605553           
         O45       1.0000    0.97140   0.40760   0.41400   Biso      1.000     O          -0.559227           
         O46       1.0000    0.70323   0.67117   0.86567   Biso      1.000     O          -0.6053270000000001           
         O47       1.0000    0.96343   0.66217   0.46767   Biso      1.000     O          -0.605821           
         O48       1.0000    0.89713   0.63807   0.25267   Biso      1.000     O          -0.559767           
         O49       1.0000    0.27277   0.35603   0.47233   Biso      1.000     O          -0.588516           
         O50       1.0000    0.29677   0.32883   0.13433   Biso      1.000     O          -0.6053270000000001           
         O51       1.0000    0.23047   0.30473   0.91933   Biso      1.000     O          -0.5594319999999999           
         O52       1.0000    0.60610   0.02270   0.13900   Biso      1.000     O          -0.589109           
         O53       1.0000    0.58340   0.60610   0.86100   Biso      1.000     O          -0.589168           
         O54       1.0000    0.72723   0.64397   0.52767   Biso      1.000     O          -0.588516 