
##########################################################################
#               Crystallographic Information Format file
#               Produced by PyCifRW module
#
#  This is a CIF file.  CIF has been adopted by the International
#  Union of Crystallography as the standard for data archiving and
#  transmission.
#
#  For information on this file format, follow the CIF links at
#  http://www.iucr.org
##########################################################################

data_image0

_cell_length_a                          26.4363
_cell_length_b                          26.4363
_cell_length_c                          7.1068
_cell_angle_alpha                       90
_cell_angle_beta                        90
_cell_angle_gamma                       120
_symmetry_space_group_name_H-M          'P 1'
_symmetry_int_tables_number             1
loop_
  _symmetry_equiv_pos_as_xyz
         'x, y, z' 
loop_
  _atom_site_label
  _atom_site_occupancy
  _atom_site_fract_x
  _atom_site_fract_y
  _atom_site_fract_z
  _atom_site_thermal_displace_type
  _atom_site_B_iso_or_equiv
  _atom_site_type_symbol
  _atom_site_charge
         C1        1.0000    0.54970   0.01170   0.11000   Biso      1.000     C          0.285721  
         C2        1.0000    0.50810   0.01440   0.17700   Biso      1.000     C          -0.111256           
         C3        1.0000    0.26457   0.91173   0.56633   Biso      1.000     C          0.575572  
         C4        1.0000    0.54960   0.00020   0.91900   Biso      1.000     C          -0.125853           
         C5        1.0000    0.57840   0.98050   0.76700   Biso      1.000     C          0.574657  
         C6        1.0000    0.67837   0.79533   0.22333   Biso      1.000     C          0.284665  
         C7        1.0000    0.49190   0.98560   0.82300   Biso      1.000     C          -0.056586000000000004         
         C8        1.0000    0.45030   0.98830   0.89000   Biso      1.000     C          0.281613  
         C9        1.0000    0.68107   0.83963   0.15633   Biso      1.000     C          -0.106494           
         C10       1.0000    0.79533   0.11697   0.77667   Biso      1.000     C          0.283873  
         C11       1.0000    0.78393   0.11707   0.58567   Biso      1.000     C          -0.127769           
         C12       1.0000    0.73543   0.08827   0.43367   Biso      1.000     C          0.576073  
         C13       1.0000    0.31383   0.06877   0.89967   Biso      1.000     C          0.575856  
         C14       1.0000    0.33353   0.11727   0.74767   Biso      1.000     C          -0.11594000000000002          
         C15       1.0000    0.34503   0.12867   0.55667   Biso      1.000     C          0.284222  
         C16       1.0000    0.83963   0.15857   0.84367   Biso      1.000     C          -0.060633000000000006         
         C17       1.0000    0.45040   0.99980   0.08100   Biso      1.000     C          -0.117923           
         C18       1.0000    0.42160   0.01950   0.23300   Biso      1.000     C          0.579769  
         C19       1.0000    0.66687   0.78393   0.41433   Biso      1.000     C          -0.11623199999999999          
         C20       1.0000    0.98050   0.40210   0.23300   Biso      1.000     C          0.578071  
         C21       1.0000    0.01440   0.50630   0.82300   Biso      1.000     C          -0.05609600000000001          
         C22       1.0000    0.87133   0.21637   0.55667   Biso      1.000     C          0.28374699999999997           
         C23       1.0000    0.82703   0.17477   0.48967   Biso      1.000     C          -0.059959000000000005         
         C24       1.0000    0.88273   0.21627   0.74767   Biso      1.000     C          -0.126424           
         C25       1.0000    0.84143   0.68107   0.84367   Biso      1.000     C          -0.106644           
         C26       1.0000    0.88303   0.67837   0.77667   Biso      1.000     C          0.284495  
         C27       1.0000    0.88293   0.66687   0.58567   Biso      1.000     C          -0.115976           
         C28       1.0000    0.91173   0.64717   0.43367   Biso      1.000     C          0.576572  
         C29       1.0000    0.93123   0.24507   0.89967   Biso      1.000     C          0.574752  
         C30       1.0000    0.64717   0.73543   0.56633   Biso      1.000     C          0.576371  
         C31       1.0000    0.17477   0.34773   0.51033   Biso      1.000     C          -0.108329           
         C32       1.0000    0.21637   0.34503   0.44333   Biso      1.000     C          0.285473  
         C33       1.0000    0.21627   0.33353   0.25233   Biso      1.000     C          -0.11860699999999999          
         C34       1.0000    0.24507   0.31383   0.10033   Biso      1.000     C          0.576865  
         C35       1.0000    0.00020   0.45060   0.08100   Biso      1.000     C          -0.117058           
         C36       1.0000    0.17297   0.82523   0.51033   Biso      1.000     C          -0.107118           
         C37       1.0000    0.08827   0.35283   0.56633   Biso      1.000     C          0.5746359999999999  
         C38       1.0000    0.11727   0.78373   0.25233   Biso      1.000     C          -0.11842000000000001          
         C39       1.0000    0.54940   0.54960   0.08100   Biso      1.000     C          -0.117183           
         C40       1.0000    0.75493   0.68617   0.89967   Biso      1.000     C          0.576943  
         C41       1.0000    0.78373   0.66647   0.74767   Biso      1.000     C          -0.117302           
         C42       1.0000    0.65227   0.82703   0.51033   Biso      1.000     C          -0.10668699999999999          
         C43       1.0000    0.65497   0.87133   0.44333   Biso      1.000     C          0.284877  
         C44       1.0000    0.66647   0.88273   0.25233   Biso      1.000     C          -0.11767999999999999          
         C45       1.0000    0.68617   0.93123   0.10033   Biso      1.000     C          0.575399  
         C46       1.0000    0.53800   0.54970   0.89000   Biso      1.000     C          0.28505199999999997           
         C47       1.0000    0.78363   0.65497   0.55667   Biso      1.000     C          0.285292  
         C48       1.0000    0.82523   0.65227   0.48967   Biso      1.000     C          -0.106733           
         C49       1.0000    0.49370   0.50810   0.82300   Biso      1.000     C          -0.107107           
         C50       1.0000    0.98560   0.49370   0.17700   Biso      1.000     C          -0.112495           
         C51       1.0000    0.98830   0.53800   0.11000   Biso      1.000     C          0.287105  
         C52       1.0000    0.99980   0.54940   0.91900   Biso      1.000     C          -0.127468           
         C53       1.0000    0.01950   0.59790   0.76700   Biso      1.000     C          0.57594   
         C54       1.0000    0.12867   0.78363   0.44333   Biso      1.000     C          0.28515300000000005           
         C55       1.0000    0.35283   0.26457   0.43367   Biso      1.000     C          0.576444  
         C56       1.0000    0.59790   0.57840   0.23300   Biso      1.000     C          0.577856  
         C57       1.0000    0.32163   0.20467   0.77667   Biso      1.000     C          0.284675  
         C58       1.0000    0.06877   0.75493   0.10033   Biso      1.000     C          0.576867  
         C59       1.0000    0.34773   0.17297   0.48967   Biso      1.000     C          -0.106278           
         C60       1.0000    0.11707   0.33313   0.41433   Biso      1.000     C          -0.115069           
         C61       1.0000    0.11697   0.32163   0.22333   Biso      1.000     C          0.282883  
         C62       1.0000    0.15857   0.31893   0.15633   Biso      1.000     C          -0.10469300000000001          
         C63       1.0000    0.50630   0.49190   0.17700   Biso      1.000     C          -0.107047           
         C64       1.0000    0.46200   0.45030   0.11000   Biso      1.000     C          0.285049  
         C65       1.0000    0.33313   0.21607   0.58567   Biso      1.000     C          -0.116782           
         C66       1.0000    0.45060   0.45040   0.91900   Biso      1.000     C          -0.11625799999999999          
         C67       1.0000    0.16037   0.84143   0.15633   Biso      1.000     C          -0.10500799999999999          
         C68       1.0000    0.20467   0.88303   0.22333   Biso      1.000     C          0.284174  
         C69       1.0000    0.21607   0.88293   0.41433   Biso      1.000     C          -0.115575           
         C70       1.0000    0.31893   0.16037   0.84367   Biso      1.000     C          -0.107777           
         C71       1.0000    0.40210   0.42160   0.76700   Biso      1.000     C          0.577658  
         C72       1.0000    0.01170   0.46200   0.89000   Biso      1.000     C          0.281195  
         Mn1       1.0000    0.37043   0.02367   0.67067   Biso      1.000     Mn          0.99051   
         Mn2       1.0000    0.97633   0.34677   0.67067   Biso      1.000     Mn          0.991419  
         Mn3       1.0000    0.70377   0.69033   0.33733   Biso      1.000     Mn          1.001025  
         Mn4       1.0000    0.64300   0.68010   0.00400   Biso      1.000     Mn          1.0010809999999999  
         Mn5       1.0000    0.96290   0.64300   0.99600   Biso      1.000     Mn          1.000158  
         Mn6       1.0000    0.69033   0.98657   0.66267   Biso      1.000     Mn          1.000541  
         Mn7       1.0000    0.62957   0.97633   0.32933   Biso      1.000     Mn          1.00023   
         Mn8       1.0000    0.65323   0.62957   0.67067   Biso      1.000     Mn          1.0012510000000001  
         Mn9       1.0000    0.29623   0.30967   0.66267   Biso      1.000     Mn          1.00096   
         Mn10      1.0000    0.35700   0.31990   0.99600   Biso      1.000     Mn          1.000623  
         Mn11      1.0000    0.02367   0.65323   0.32933   Biso      1.000     Mn          0.99959   
         Mn12      1.0000    0.98657   0.29623   0.33733   Biso      1.000     Mn          0.989118  
         Mn13      1.0000    0.03710   0.35700   0.00400   Biso      1.000     Mn          1.004467  
         Mn14      1.0000    0.30967   0.01343   0.33733   Biso      1.000     Mn          1.001631  
         Mn15      1.0000    0.01343   0.70377   0.66267   Biso      1.000     Mn          1.000297  
         Mn16      1.0000    0.68010   0.03710   0.99600   Biso      1.000     Mn          0.988549  
         Mn17      1.0000    0.34677   0.37043   0.32933   Biso      1.000     Mn          1.001318  
         Mn18      1.0000    0.31990   0.96290   0.00400   Biso      1.000     Mn          1.003727  
         O1        1.0000    0.30247   0.96783   0.53733   Biso      1.000     O          -0.5740460000000001           
         O2        1.0000    0.77353   0.69277   0.06767   Biso      1.000     O          -0.465689           
         O3        1.0000    0.96913   0.30117   0.87067   Biso      1.000     O          -0.57676  
         O4        1.0000    0.91953   0.27347   0.50667   Biso      1.000     O          -0.603008           
         O5        1.0000    0.05987   0.31273   0.17333   Biso      1.000     O          -0.599902           
         O6        1.0000    0.10687   0.35943   0.73433   Biso      1.000     O          -0.468138           
         O7        1.0000    0.25287   0.94013   0.17333   Biso      1.000     O          -0.5995020000000001           
         O8        1.0000    0.39320   0.97940   0.84000   Biso      1.000     O          -0.602696           
         O9        1.0000    0.44020   0.02610   0.40100   Biso      1.000     O          -0.469358           
         O10       1.0000    0.36550   0.00130   0.20400   Biso      1.000     O          -0.575581           
         O11       1.0000    0.25257   0.89313   0.73433   Biso      1.000     O          -0.46707200000000004          
         O12       1.0000    0.03217   0.33463   0.53733   Biso      1.000     O          -0.575851           
         O13       1.0000    0.91923   0.22647   0.06767   Biso      1.000     O          -0.475074           
         O14       1.0000    0.94013   0.68727   0.82667   Biso      1.000     O          -0.599985           
         O15       1.0000    0.63580   0.63450   0.20400   Biso      1.000     O          -0.575527           
         O16       1.0000    0.74743   0.10687   0.26567   Biso      1.000     O          -0.47351099999999996          
         O17       1.0000    0.08047   0.72653   0.49333   Biso      1.000     O          -0.59945  
         O18       1.0000    0.03087   0.69883   0.12933   Biso      1.000     O          -0.574218           
         O19       1.0000    0.08077   0.77353   0.93233   Biso      1.000     O          -0.46579499999999996          
         O20       1.0000    0.41380   0.39320   0.16000   Biso      1.000     O          -0.599517           
         O21       1.0000    0.36420   0.36550   0.79600   Biso      1.000     O          -0.575127           
         O22       1.0000    0.41410   0.44020   0.59900   Biso      1.000     O          -0.46635699999999997          
         O23       1.0000    0.69753   0.03217   0.46267   Biso      1.000     O          -0.575932           
         O24       1.0000    0.31273   0.25287   0.82667   Biso      1.000     O          -0.5996560000000001           
         O25       1.0000    0.35943   0.25257   0.26567   Biso      1.000     O          -0.46626999999999996          
         O26       1.0000    0.64607   0.91953   0.49333   Biso      1.000     O          -0.599683           
         O27       1.0000    0.66797   0.96913   0.12933   Biso      1.000     O          -0.573565           
         O28       1.0000    0.69277   0.91923   0.93233   Biso      1.000     O          -0.46584200000000003          
         O29       1.0000    0.97940   0.58620   0.16000   Biso      1.000     O          -0.604456           
         O30       1.0000    0.00130   0.63580   0.79600   Biso      1.000     O          -0.5751850000000001           
         O31       1.0000    0.02610   0.58590   0.59900   Biso      1.000     O          -0.46825600000000006          
         O32       1.0000    0.33463   0.30247   0.46267   Biso      1.000     O          -0.574627           
         O33       1.0000    0.74713   0.05987   0.82667   Biso      1.000     O          -0.603309           
         O34       1.0000    0.55980   0.97390   0.59900   Biso      1.000     O          -0.46958  
         O35       1.0000    0.63450   0.99870   0.79600   Biso      1.000     O          -0.576695           
         O36       1.0000    0.58590   0.55980   0.40100   Biso      1.000     O          -0.466341           
         O37       1.0000    0.35393   0.08047   0.50667   Biso      1.000     O          -0.600005           
         O38       1.0000    0.33203   0.03087   0.87067   Biso      1.000     O          -0.5760890000000001           
         O39       1.0000    0.30723   0.08077   0.06767   Biso      1.000     O          -0.467082           
         O40       1.0000    0.68727   0.74713   0.17333   Biso      1.000     O          -0.5995050000000001           
         O41       1.0000    0.66537   0.69753   0.53733   Biso      1.000     O          -0.574392           
         O42       1.0000    0.64057   0.74743   0.73433   Biso      1.000     O          -0.466081           
         O43       1.0000    0.02060   0.41380   0.84000   Biso      1.000     O          -0.6027600000000001           
         O44       1.0000    0.99870   0.36420   0.20400   Biso      1.000     O          -0.574973           
         O45       1.0000    0.97390   0.41410   0.40100   Biso      1.000     O          -0.46966899999999995          
         O46       1.0000    0.69883   0.66797   0.87067   Biso      1.000     O          -0.574507           
         O47       1.0000    0.96783   0.66537   0.46267   Biso      1.000     O          -0.575151           
         O48       1.0000    0.89313   0.64057   0.26567   Biso      1.000     O          -0.465557           
         O49       1.0000    0.27347   0.35393   0.49333   Biso      1.000     O          -0.599584           
         O50       1.0000    0.30117   0.33203   0.12933   Biso      1.000     O          -0.574521           
         O51       1.0000    0.22647   0.30723   0.93233   Biso      1.000     O          -0.46596800000000005          
         O52       1.0000    0.60680   0.02060   0.16000   Biso      1.000     O          -0.604827           
         O53       1.0000    0.58620   0.60680   0.84000   Biso      1.000     O          -0.599759           
         O54       1.0000    0.72653   0.64607   0.50667   Biso      1.000     O          -0.599612 