
##########################################################################
#               Crystallographic Information Format file
#               Produced by PyCifRW module
#
#  This is a CIF file.  CIF has been adopted by the International
#  Union of Crystallography as the standard for data archiving and
#  transmission.
#
#  For information on this file format, follow the CIF links at
#  http://www.iucr.org
##########################################################################

data_image0

_cell_length_a                          26.2978
_cell_length_b                          26.2978
_cell_length_c                          7.0741
_cell_angle_alpha                       90
_cell_angle_beta                        90
_cell_angle_gamma                       120
_symmetry_space_group_name_H-M          'P 1'
_symmetry_int_tables_number             1
loop_
  _symmetry_equiv_pos_as_xyz
         'x, y, z' 
loop_
  _atom_site_label
  _atom_site_occupancy
  _atom_site_fract_x
  _atom_site_fract_y
  _atom_site_fract_z
  _atom_site_thermal_displace_type
  _atom_site_B_iso_or_equiv
  _atom_site_type_symbol
  _atom_site_charge
         C1        1.0000    0.20997   0.88363   0.26533   Biso      1.000     C          0.308639  
         C2        1.0000    0.24437   0.32083   0.08833   Biso      1.000     C          0.66173   
         C3        1.0000    0.32623   0.12117   0.79267   Biso      1.000     C          -0.153141           
         C4        1.0000    0.48380   0.98180   0.80700   Biso      1.000     C          -0.180052           
         C5        1.0000    0.21217   0.87173   0.45933   Biso      1.000     C          -0.152891           
         C6        1.0000    0.51620   0.01820   0.19300   Biso      1.000     C          -0.180052           
         C7        1.0000    0.55030   0.00700   0.06800   Biso      1.000     C          0.307551  
         C8        1.0000    0.53840   0.99290   0.87400   Biso      1.000     C          -0.153416           
         C9        1.0000    0.20507   0.32623   0.20733   Biso      1.000     C          -0.152859           
         C10       1.0000    0.57770   0.98750   0.75500   Biso      1.000     C          0.661667  
         C11       1.0000    0.35153   0.16867   0.47367   Biso      1.000     C          -0.180066           
         C12       1.0000    0.83533   0.15047   0.85967   Biso      1.000     C          -0.180515           
         C13       1.0000    0.79003   0.11637   0.73467   Biso      1.000     C          0.308639  
         C14       1.0000    0.78783   0.12827   0.54067   Biso      1.000     C          -0.152891           
         C15       1.0000    0.65957   0.78783   0.45933   Biso      1.000     C          -0.15293199999999998          
         C16       1.0000    0.08897   0.34583   0.57833   Biso      1.000     C          0.6615479999999999  
         C17       1.0000    0.12827   0.34043   0.45933   Biso      1.000     C          -0.1532   
         C18       1.0000    0.34033   0.12337   0.59867   Biso      1.000     C          0.30769   
         C19       1.0000    0.21697   0.34033   0.40133   Biso      1.000     C          0.307422  
         C20       1.0000    0.18287   0.35153   0.52633   Biso      1.000     C          -0.179917           
         C21       1.0000    0.44970   0.99300   0.93200   Biso      1.000     C          0.307551  
         C22       1.0000    0.65417   0.74313   0.57833   Biso      1.000     C          0.6615439999999999  
         C23       1.0000    0.68487   0.83533   0.14033   Biso      1.000     C          -0.18040899999999999          
         C24       1.0000    0.83133   0.18287   0.47367   Biso      1.000     C          -0.180135           
         C25       1.0000    0.01820   0.50200   0.80700   Biso      1.000     C          -0.180058           
         C26       1.0000    0.00700   0.45670   0.93200   Biso      1.000     C          0.307552  
         C27       1.0000    0.99290   0.45450   0.12600   Biso      1.000     C          -0.15341  
         C28       1.0000    0.98750   0.40980   0.24500   Biso      1.000     C          0.6616770000000001  
         C29       1.0000    0.87663   0.21697   0.59867   Biso      1.000     C          0.30764600000000003           
         C30       1.0000    0.87883   0.20507   0.79267   Biso      1.000     C          -0.15313  
         C31       1.0000    0.92353   0.24437   0.91167   Biso      1.000     C          0.661834  
         C32       1.0000    0.84953   0.68487   0.85967   Biso      1.000     C          -0.180476           
         C33       1.0000    0.88363   0.67367   0.73467   Biso      1.000     C          0.308523  
         C34       1.0000    0.87173   0.65957   0.54067   Biso      1.000     C          -0.1532   
         C35       1.0000    0.91103   0.65417   0.42167   Biso      1.000     C          0.6615479999999999  
         C36       1.0000    0.32083   0.07647   0.91167   Biso      1.000     C          0.661814  
         C37       1.0000    0.42230   0.01250   0.24500   Biso      1.000     C          0.661667  
         C38       1.0000    0.46160   0.00710   0.12600   Biso      1.000     C          -0.153415           
         C39       1.0000    0.11637   0.32633   0.26533   Biso      1.000     C          0.308523  
         C40       1.0000    0.16867   0.81713   0.52633   Biso      1.000     C          -0.180134           
         C41       1.0000    0.74313   0.08897   0.42167   Biso      1.000     C          0.661455  
         C42       1.0000    0.34583   0.25687   0.42167   Biso      1.000     C          0.6615439999999999  
         C43       1.0000    0.34043   0.21217   0.54067   Biso      1.000     C          -0.15293099999999998          
         C44       1.0000    0.12337   0.78303   0.40133   Biso      1.000     C          0.30764600000000003           
         C45       1.0000    0.16467   0.84953   0.14033   Biso      1.000     C          -0.180515           
         C46       1.0000    0.75563   0.67917   0.91167   Biso      1.000     C          0.66173   
         C47       1.0000    0.79493   0.67377   0.79267   Biso      1.000     C          -0.152859           
         C48       1.0000    0.78303   0.65967   0.59867   Biso      1.000     C          0.307422  
         C49       1.0000    0.64847   0.83133   0.52633   Biso      1.000     C          -0.180066           
         C50       1.0000    0.32633   0.20997   0.73467   Biso      1.000     C          0.30844499999999997           
         C51       1.0000    0.65967   0.87663   0.40133   Biso      1.000     C          0.30769   
         C52       1.0000    0.67917   0.92353   0.08833   Biso      1.000     C          0.661814  
         C53       1.0000    0.81713   0.64847   0.47367   Biso      1.000     C          -0.179917           
         C54       1.0000    0.25687   0.91103   0.57833   Biso      1.000     C          0.661455  
         C55       1.0000    0.98180   0.49800   0.19300   Biso      1.000     C          -0.180057           
         C56       1.0000    0.99300   0.54330   0.06800   Biso      1.000     C          0.307552  
         C57       1.0000    0.00710   0.54550   0.87400   Biso      1.000     C          -0.15341  
         C58       1.0000    0.01250   0.59020   0.75500   Biso      1.000     C          0.6616770000000001  
         C59       1.0000    0.67377   0.87883   0.20733   Biso      1.000     C          -0.153141           
         C60       1.0000    0.31513   0.16467   0.85967   Biso      1.000     C          -0.18040799999999999          
         C61       1.0000    0.67367   0.79003   0.26533   Biso      1.000     C          0.30844499999999997           
         C62       1.0000    0.45450   0.46160   0.87400   Biso      1.000     C          -0.15341  
         C63       1.0000    0.15047   0.31513   0.14033   Biso      1.000     C          -0.180476           
         C64       1.0000    0.50200   0.48380   0.19300   Biso      1.000     C          -0.180061           
         C65       1.0000    0.45670   0.44970   0.06800   Biso      1.000     C          0.30754699999999996           
         C66       1.0000    0.40980   0.42230   0.75500   Biso      1.000     C          0.6616609999999999  
         C67       1.0000    0.54550   0.53840   0.12600   Biso      1.000     C          -0.15341  
         C68       1.0000    0.49800   0.51620   0.80700   Biso      1.000     C          -0.18006  
         C69       1.0000    0.59020   0.57770   0.24500   Biso      1.000     C          0.6616609999999999  
         C70       1.0000    0.07647   0.75563   0.08833   Biso      1.000     C          0.661834  
         C71       1.0000    0.12117   0.79493   0.20733   Biso      1.000     C          -0.15313  
         C72       1.0000    0.54330   0.55030   0.93200   Biso      1.000     C          0.30754699999999996           
         H1        1.0000    0.83083   0.19160   0.32943   Biso      1.000     H          0.14577400000000001           
         H2        1.0000    0.14174   0.30590   0.99609   Biso      1.000     H          0.14566400000000002           
         H3        1.0000    0.69410   0.83583   0.99609   Biso      1.000     H          0.14568299999999998           
         H4        1.0000    0.02743   0.50250   0.66276   Biso      1.000     H          0.145963  
         H5        1.0000    0.97257   0.49750   0.33724   Biso      1.000     H          0.145964  
         H6        1.0000    0.80840   0.63924   0.32943   Biso      1.000     H          0.14572100000000002           
         H7        1.0000    0.47507   0.97257   0.66276   Biso      1.000     H          0.145967  
         H8        1.0000    0.85826   0.69410   0.00391   Biso      1.000     H          0.14566400000000002           
         H9        1.0000    0.49750   0.52493   0.66276   Biso      1.000     H          0.145963  
         H10       1.0000    0.50250   0.47507   0.33724   Biso      1.000     H          0.14596199999999998           
         H11       1.0000    0.83583   0.14174   0.00391   Biso      1.000     H          0.145713  
         H12       1.0000    0.63924   0.83083   0.67057   Biso      1.000     H          0.145733  
         H13       1.0000    0.36076   0.16917   0.32943   Biso      1.000     H          0.145734  
         H14       1.0000    0.19160   0.36076   0.67057   Biso      1.000     H          0.14572100000000002           
         H15       1.0000    0.52493   0.02743   0.33724   Biso      1.000     H          0.145967  
         H16       1.0000    0.30590   0.16417   0.00391   Biso      1.000     H          0.14568299999999998           
         H17       1.0000    0.16417   0.85826   0.99609   Biso      1.000     H          0.145713  
         H18       1.0000    0.16917   0.80840   0.67057   Biso      1.000     H          0.145775  
         Mn1       1.0000    0.30517   0.02103   0.31533   Biso      1.000     Mn          1.006538  
         Mn2       1.0000    0.97183   0.35437   0.64867   Biso      1.000     Mn          1.006212  
         Mn3       1.0000    0.63850   0.68770   0.98200   Biso      1.000     Mn          1.0066629999999999  
         Mn4       1.0000    0.38253   0.02817   0.64867   Biso      1.000     Mn          1.0062280000000001  
         Mn5       1.0000    0.95080   0.63850   0.01800   Biso      1.000     Mn          1.006688  
         Mn6       1.0000    0.28413   0.30517   0.68467   Biso      1.000     Mn          1.006617  
         Mn7       1.0000    0.02817   0.64563   0.35133   Biso      1.000     Mn          1.006213  
         Mn8       1.0000    0.69483   0.97897   0.68467   Biso      1.000     Mn          1.006538  
         Mn9       1.0000    0.71587   0.69483   0.31533   Biso      1.000     Mn          1.006617  
         Mn10      1.0000    0.97897   0.28413   0.31533   Biso      1.000     Mn          1.006597  
         Mn11      1.0000    0.64563   0.61747   0.64867   Biso      1.000     Mn          1.006181  
         Mn12      1.0000    0.68770   0.04920   0.01800   Biso      1.000     Mn          1.0067030000000001  
         Mn13      1.0000    0.36150   0.31230   0.01800   Biso      1.000     Mn          1.0066629999999999  
         Mn14      1.0000    0.02103   0.71587   0.68467   Biso      1.000     Mn          1.0065979999999999  
         Mn15      1.0000    0.31230   0.95080   0.98200   Biso      1.000     Mn          1.006704  
         Mn16      1.0000    0.61747   0.97183   0.35133   Biso      1.000     Mn          1.006227  
         Mn17      1.0000    0.04920   0.36150   0.98200   Biso      1.000     Mn          1.006687  
         Mn18      1.0000    0.35437   0.38253   0.35133   Biso      1.000     Mn          1.006182  
         O1        1.0000    0.06277   0.30973   0.19233   Biso      1.000     O          -0.615405           
         O2        1.0000    0.25967   0.89373   0.75233   Biso      1.000     O          -0.6039899999999999           
         O3        1.0000    0.77293   0.69927   0.08567   Biso      1.000     O          -0.6039939999999999           
         O4        1.0000    0.92633   0.22707   0.08567   Biso      1.000     O          -0.603945           
         O5        1.0000    0.30017   0.95813   0.54433   Biso      1.000     O          -0.569287           
         O6        1.0000    0.10627   0.36593   0.75233   Biso      1.000     O          -0.603999           
         O7        1.0000    0.24697   0.93723   0.19233   Biso      1.000     O          -0.6155229999999999           
         O8        1.0000    0.39610   0.97640   0.85900   Biso      1.000     O          -0.614682           
         O9        1.0000    0.37520   0.00870   0.21100   Biso      1.000     O          -0.569339           
         O10       1.0000    0.91363   0.27057   0.52567   Biso      1.000     O          -0.6147729999999999           
         O11       1.0000    0.96683   0.29147   0.87767   Biso      1.000     O          -0.570013           
         O12       1.0000    0.04187   0.34203   0.54433   Biso      1.000     O          -0.569289           
         O13       1.0000    0.43960   0.03260   0.41900   Biso      1.000     O          -0.603966           
         O14       1.0000    0.93723   0.69027   0.80767   Biso      1.000     O          -0.615405           
         O15       1.0000    0.63350   0.62480   0.21100   Biso      1.000     O          -0.5693600000000001           
         O16       1.0000    0.74033   0.10627   0.24767   Biso      1.000     O          -0.6039899999999999           
         O17       1.0000    0.08637   0.72943   0.47433   Biso      1.000     O          -0.6147729999999999           
         O18       1.0000    0.03317   0.70853   0.12233   Biso      1.000     O          -0.570013           
         O19       1.0000    0.07367   0.77293   0.91433   Biso      1.000     O          -0.603945           
         O20       1.0000    0.41970   0.39610   0.14100   Biso      1.000     O          -0.614676           
         O21       1.0000    0.36650   0.37520   0.78900   Biso      1.000     O          -0.5693600000000001           
         O22       1.0000    0.40700   0.43960   0.58100   Biso      1.000     O          -0.6039640000000001           
         O23       1.0000    0.69983   0.04187   0.45567   Biso      1.000     O          -0.569287           
         O24       1.0000    0.30973   0.24697   0.80767   Biso      1.000     O          -0.6154229999999999           
         O25       1.0000    0.36593   0.25967   0.24767   Biso      1.000     O          -0.604002           
         O26       1.0000    0.64307   0.91363   0.47433   Biso      1.000     O          -0.614842           
         O27       1.0000    0.67537   0.96683   0.12233   Biso      1.000     O          -0.57006  
         O28       1.0000    0.69927   0.92633   0.91433   Biso      1.000     O          -0.603916           
         O29       1.0000    0.97640   0.58030   0.14100   Biso      1.000     O          -0.614689           
         O30       1.0000    0.00870   0.63350   0.78900   Biso      1.000     O          -0.5693560000000001           
         O31       1.0000    0.03260   0.59300   0.58100   Biso      1.000     O          -0.603954           
         O32       1.0000    0.34203   0.30017   0.45567   Biso      1.000     O          -0.569398           
         O33       1.0000    0.75303   0.06277   0.80767   Biso      1.000     O          -0.615522           
         O34       1.0000    0.56040   0.96740   0.58100   Biso      1.000     O          -0.603966           
         O35       1.0000    0.62480   0.99130   0.78900   Biso      1.000     O          -0.569339           
         O36       1.0000    0.59300   0.56040   0.41900   Biso      1.000     O          -0.6039640000000001           
         O37       1.0000    0.35693   0.08637   0.52567   Biso      1.000     O          -0.614843           
         O38       1.0000    0.32463   0.03317   0.87767   Biso      1.000     O          -0.5700609999999999           
         O39       1.0000    0.30073   0.07367   0.08567   Biso      1.000     O          -0.603917           
         O40       1.0000    0.69027   0.75303   0.19233   Biso      1.000     O          -0.6154229999999999           
         O41       1.0000    0.65797   0.69983   0.54433   Biso      1.000     O          -0.569398           
         O42       1.0000    0.63407   0.74033   0.75233   Biso      1.000     O          -0.604002           
         O43       1.0000    0.02360   0.41970   0.85900   Biso      1.000     O          -0.614688           
         O44       1.0000    0.99130   0.36650   0.21100   Biso      1.000     O          -0.5693560000000001           
         O45       1.0000    0.96740   0.40700   0.41900   Biso      1.000     O          -0.603953           
         O46       1.0000    0.70853   0.67537   0.87767   Biso      1.000     O          -0.569944           
         O47       1.0000    0.95813   0.65797   0.45567   Biso      1.000     O          -0.569289           
         O48       1.0000    0.89373   0.63407   0.24767   Biso      1.000     O          -0.603999           
         O49       1.0000    0.27057   0.35693   0.47433   Biso      1.000     O          -0.614689           
         O50       1.0000    0.29147   0.32463   0.12233   Biso      1.000     O          -0.569944           
         O51       1.0000    0.22707   0.30073   0.91433   Biso      1.000     O          -0.6039939999999999           
         O52       1.0000    0.60390   0.02360   0.14100   Biso      1.000     O          -0.614682           
         O53       1.0000    0.58030   0.60390   0.85900   Biso      1.000     O          -0.614676           
         O54       1.0000    0.72943   0.64307   0.52567   Biso      1.000     O          -0.614689 