
##########################################################################
#               Crystallographic Information Format file
#               Produced by PyCifRW module
#
#  This is a CIF file.  CIF has been adopted by the International
#  Union of Crystallography as the standard for data archiving and
#  transmission.
#
#  For information on this file format, follow the CIF links at
#  http://www.iucr.org
##########################################################################

data_image0

_cell_length_a                          25.8761
_cell_length_b                          25.8761
_cell_length_c                          6.2626
_cell_angle_alpha                       90
_cell_angle_beta                        90
_cell_angle_gamma                       120
_symmetry_space_group_name_H-M          'P 1'
_symmetry_int_tables_number             1
loop_
  _symmetry_equiv_pos_as_xyz
         'x, y, z' 
loop_
  _atom_site_label
  _atom_site_occupancy
  _atom_site_fract_x
  _atom_site_fract_y
  _atom_site_fract_z
  _atom_site_thermal_displace_type
  _atom_site_B_iso_or_equiv
  _atom_site_type_symbol
  _atom_site_charge
         C1        1.0000    0.21107   0.87243   0.47433   Biso      1.000     C          -0.129607           
         C2        1.0000    0.58200   0.99280   0.71100   Biso      1.000     C          0.650026  
         C3        1.0000    0.65947   0.74413   0.62233   Biso      1.000     C          0.64997   
         C4        1.0000    0.64637   0.83143   0.53833   Biso      1.000     C          -0.150133           
         C5        1.0000    0.66137   0.78893   0.47433   Biso      1.000     C          -0.12943  
         C6        1.0000    0.68167   0.79033   0.26233   Biso      1.000     C          0.267801  
         C7        1.0000    0.79033   0.10867   0.73767   Biso      1.000     C          0.269244  
         C8        1.0000    0.78893   0.12757   0.52567   Biso      1.000     C          -0.129336           
         C9        1.0000    0.83143   0.18507   0.46167   Biso      1.000     C          -0.148613           
         C10       1.0000    0.74413   0.08467   0.37767   Biso      1.000     C          0.650116  
         C11       1.0000    0.87773   0.20577   0.80767   Biso      1.000     C          -0.125753           
         C12       1.0000    0.08467   0.34053   0.62233   Biso      1.000     C          0.649705  
         C13       1.0000    0.18507   0.35363   0.53833   Biso      1.000     C          -0.150798           
         C14       1.0000    0.12757   0.33863   0.47433   Biso      1.000     C          -0.126305           
         C15       1.0000    0.83523   0.14827   0.87167   Biso      1.000     C          -0.150296           
         C16       1.0000    0.12367   0.77533   0.40433   Biso      1.000     C          0.268437  
         C17       1.0000    0.48160   0.97970   0.79500   Biso      1.000     C          -0.150275           
         C18       1.0000    0.53910   0.99470   0.85900   Biso      1.000     C          -0.129241           
         C19       1.0000    0.55800   0.01500   0.07100   Biso      1.000     C          0.267888  
         C20       1.0000    0.87633   0.22467   0.59567   Biso      1.000     C          0.268829  
         C21       1.0000    0.87243   0.66137   0.52567   Biso      1.000     C          -0.125969           
         C22       1.0000    0.81493   0.64637   0.46167   Biso      1.000     C          -0.150215           
         C23       1.0000    0.91533   0.65947   0.37767   Biso      1.000     C          0.649646  
         C24       1.0000    0.99280   0.41080   0.28900   Biso      1.000     C          0.64957   
         C25       1.0000    0.41800   0.00720   0.28900   Biso      1.000     C          0.650054  
         C26       1.0000    0.51840   0.02030   0.20500   Biso      1.000     C          -0.150201           
         C27       1.0000    0.46090   0.00530   0.14100   Biso      1.000     C          -0.129531           
         C28       1.0000    0.12227   0.79423   0.19233   Biso      1.000     C          -0.125907           
         C29       1.0000    0.97970   0.49810   0.20500   Biso      1.000     C          -0.149738           
         C30       1.0000    0.20577   0.32803   0.19233   Biso      1.000     C          -0.129732           
         C31       1.0000    0.14827   0.31303   0.12833   Biso      1.000     C          -0.148754           
         C32       1.0000    0.24867   0.32613   0.04433   Biso      1.000     C          0.649999  
         C33       1.0000    0.99470   0.45560   0.14100   Biso      1.000     C          -0.128116           
         C34       1.0000    0.44200   0.98500   0.92900   Biso      1.000     C          0.267604  
         C35       1.0000    0.01500   0.45700   0.92900   Biso      1.000     C          0.268788  
         C36       1.0000    0.16857   0.81493   0.53833   Biso      1.000     C          -0.148625           
         C37       1.0000    0.22467   0.34833   0.40433   Biso      1.000     C          0.268632  
         C38       1.0000    0.89133   0.68167   0.73767   Biso      1.000     C          0.267998  
         C39       1.0000    0.16477   0.85173   0.12833   Biso      1.000     C          -0.150756           
         C40       1.0000    0.92253   0.24867   0.95567   Biso      1.000     C          0.649887  
         C41       1.0000    0.85173   0.68697   0.87167   Biso      1.000     C          -0.148477           
         C42       1.0000    0.79423   0.67197   0.80767   Biso      1.000     C          -0.12908  
         C43       1.0000    0.54440   0.53910   0.14100   Biso      1.000     C          -0.12931  
         C44       1.0000    0.65167   0.87633   0.40433   Biso      1.000     C          0.267586  
         C45       1.0000    0.67197   0.87773   0.19233   Biso      1.000     C          -0.129496           
         C46       1.0000    0.68697   0.83523   0.12833   Biso      1.000     C          -0.150173           
         C47       1.0000    0.67387   0.92253   0.04433   Biso      1.000     C          0.65004   
         C48       1.0000    0.54300   0.55800   0.92900   Biso      1.000     C          0.267714  
         C49       1.0000    0.77533   0.65167   0.59567   Biso      1.000     C          0.269284  
         C50       1.0000    0.20967   0.89133   0.26233   Biso      1.000     C          0.269082  
         C51       1.0000    0.25587   0.91533   0.62233   Biso      1.000     C          0.650282  
         C52       1.0000    0.98500   0.54300   0.07100   Biso      1.000     C          0.269201  
         C53       1.0000    0.00530   0.54440   0.85900   Biso      1.000     C          -0.127947           
         C54       1.0000    0.02030   0.50190   0.79500   Biso      1.000     C          -0.149758           
         C55       1.0000    0.00720   0.58920   0.71100   Biso      1.000     C          0.649761  
         C56       1.0000    0.75133   0.67387   0.95567   Biso      1.000     C          0.64979   
         C57       1.0000    0.07747   0.75133   0.04433   Biso      1.000     C          0.649727  
         C58       1.0000    0.50190   0.48160   0.20500   Biso      1.000     C          -0.150236           
         C59       1.0000    0.35363   0.16857   0.46167   Biso      1.000     C          -0.150123           
         C60       1.0000    0.10867   0.31833   0.26233   Biso      1.000     C          0.267958  
         C61       1.0000    0.32613   0.07747   0.95567   Biso      1.000     C          0.650095  
         C62       1.0000    0.31303   0.16477   0.87167   Biso      1.000     C          -0.150114           
         C63       1.0000    0.45700   0.44200   0.07100   Biso      1.000     C          0.267783  
         C64       1.0000    0.45560   0.46090   0.85900   Biso      1.000     C          -0.129356           
         C65       1.0000    0.49810   0.51840   0.79500   Biso      1.000     C          -0.150138           
         C66       1.0000    0.34053   0.25587   0.37767   Biso      1.000     C          0.649943  
         C67       1.0000    0.41080   0.41800   0.71100   Biso      1.000     C          0.649984  
         C68       1.0000    0.34833   0.12367   0.59567   Biso      1.000     C          0.267586  
         C69       1.0000    0.58920   0.58200   0.28900   Biso      1.000     C          0.649921  
         C70       1.0000    0.31833   0.20967   0.73767   Biso      1.000     C          0.267735  
         C71       1.0000    0.33863   0.21107   0.52567   Biso      1.000     C          -0.129382           
         C72       1.0000    0.32803   0.12227   0.80767   Biso      1.000     C          -0.129533           
         Cu1       1.0000    0.96313   0.34917   0.68267   Biso      1.000     Cu          0.881873  
         Cu2       1.0000    0.62980   0.68250   0.01600   Biso      1.000     Cu          0.8878    
         Cu3       1.0000    0.29647   0.01583   0.34933   Biso      1.000     Cu          0.88724   
         Cu4       1.0000    0.71937   0.70353   0.34933   Biso      1.000     Cu          0.885604  
         Cu5       1.0000    0.38603   0.03687   0.68267   Biso      1.000     Cu          0.887672  
         Cu6       1.0000    0.05270   0.37020   0.01600   Biso      1.000     Cu          0.886795  
         Cu7       1.0000    0.94730   0.62980   0.98400   Biso      1.000     Cu          0.882173  
         Cu8       1.0000    0.37020   0.31750   0.98400   Biso      1.000     Cu          0.887772  
         Cu9       1.0000    0.98417   0.28063   0.34933   Biso      1.000     Cu          0.880703  
         Cu10      1.0000    0.03687   0.65083   0.31733   Biso      1.000     Cu          0.880008  
         Cu11      1.0000    0.68250   0.05270   0.98400   Biso      1.000     Cu          0.885565  
         Cu12      1.0000    0.31750   0.94730   0.01600   Biso      1.000     Cu          0.887581  
         Cu13      1.0000    0.65083   0.61397   0.68267   Biso      1.000     Cu          0.887375  
         Cu14      1.0000    0.70353   0.98417   0.65067   Biso      1.000     Cu          0.887309  
         Cu15      1.0000    0.34917   0.38603   0.31733   Biso      1.000     Cu          0.887385  
         Cu16      1.0000    0.61397   0.96313   0.31733   Biso      1.000     Cu          0.887852  
         Cu17      1.0000    0.01583   0.71937   0.65067   Biso      1.000     Cu          0.886871  
         Cu18      1.0000    0.28063   0.29647   0.65067   Biso      1.000     Cu          0.887355  
         H1        1.0000    0.50500   0.46850   0.37100   Biso      1.000     H          0.13611   
         H2        1.0000    0.49500   0.53150   0.62900   Biso      1.000     H          0.136134  
         H3        1.0000    0.70317   0.83833   0.96233   Biso      1.000     H          0.136043  
         H4        1.0000    0.16167   0.86483   0.96233   Biso      1.000     H          0.136346  
         H5        1.0000    0.29683   0.16167   0.03767   Biso      1.000     H          0.136074  
         H6        1.0000    0.19817   0.36983   0.70433   Biso      1.000     H          0.136346  
         H7        1.0000    0.82833   0.19817   0.29567   Biso      1.000     H          0.136642  
         H8        1.0000    0.17167   0.80183   0.70433   Biso      1.000     H          0.136461  
         H9        1.0000    0.86483   0.70317   0.03767   Biso      1.000     H          0.136538  
         H10       1.0000    0.46850   0.96350   0.62900   Biso      1.000     H          0.136077  
         H11       1.0000    0.83833   0.13517   0.03767   Biso      1.000     H          0.136542  
         H12       1.0000    0.96350   0.49500   0.37100   Biso      1.000     H          0.136582  
         H13       1.0000    0.53150   0.03650   0.37100   Biso      1.000     H          0.136115  
         H14       1.0000    0.13517   0.29683   0.96233   Biso      1.000     H          0.136287  
         H15       1.0000    0.80183   0.63017   0.29567   Biso      1.000     H          0.136655  
         H16       1.0000    0.03650   0.50500   0.62900   Biso      1.000     H          0.136581  
         H17       1.0000    0.63017   0.82833   0.70433   Biso      1.000     H          0.136155  
         H18       1.0000    0.36983   0.17167   0.29567   Biso      1.000     H          0.136165  
         O1        1.0000    0.26577   0.89153   0.78633   Biso      1.000     O          -0.532017           
         O2        1.0000    0.77513   0.70757   0.11967   Biso      1.000     O          -0.532623           
         O3        1.0000    0.91533   0.27997   0.50167   Biso      1.000     O          -0.543823           
         O4        1.0000    0.24867   0.94663   0.16833   Biso      1.000     O          -0.54552  
         O5        1.0000    0.05337   0.30203   0.16833   Biso      1.000     O          -0.544769           
         O6        1.0000    0.03097   0.31293   0.60933   Biso      1.000     O          -0.583692           
         O7        1.0000    0.10847   0.37423   0.78633   Biso      1.000     O          -0.537441           
         O8        1.0000    0.38670   0.96870   0.83500   Biso      1.000     O          -0.546482           
         O9        1.0000    0.36430   0.97960   0.27600   Biso      1.000     O          -0.583427           
         O10       1.0000    0.93243   0.22487   0.11967   Biso      1.000     O          -0.537045           
         O11       1.0000    0.94863   0.30237   0.94267   Biso      1.000     O          -0.584346           
         O12       1.0000    0.28197   0.96903   0.60933   Biso      1.000     O          -0.583069           
         O13       1.0000    0.44180   0.04090   0.45300   Biso      1.000     O          -0.531865           
         O14       1.0000    0.94663   0.69797   0.83167   Biso      1.000     O          -0.541853           
         O15       1.0000    0.61530   0.63570   0.27600   Biso      1.000     O          -0.583092           
         O16       1.0000    0.73423   0.10847   0.21367   Biso      1.000     O          -0.53264  
         O17       1.0000    0.08467   0.72003   0.49833   Biso      1.000     O          -0.5453   
         O18       1.0000    0.05137   0.69763   0.05733   Biso      1.000     O          -0.583669           
         O19       1.0000    0.06757   0.77513   0.88033   Biso      1.000     O          -0.536663           
         O20       1.0000    0.41800   0.38670   0.16500   Biso      1.000     O          -0.546658           
         O21       1.0000    0.38470   0.36430   0.72400   Biso      1.000     O          -0.583313           
         O22       1.0000    0.40090   0.44180   0.54700   Biso      1.000     O          -0.531921           
         O23       1.0000    0.71803   0.03097   0.39067   Biso      1.000     O          -0.583446           
         O24       1.0000    0.30203   0.24867   0.83167   Biso      1.000     O          -0.546611           
         O25       1.0000    0.37423   0.26577   0.21367   Biso      1.000     O          -0.532006           
         O26       1.0000    0.63537   0.91533   0.49833   Biso      1.000     O          -0.5465   
         O27       1.0000    0.64627   0.94863   0.05733   Biso      1.000     O          -0.583052           
         O28       1.0000    0.70757   0.93243   0.88033   Biso      1.000     O          -0.532109           
         O29       1.0000    0.96870   0.58200   0.16500   Biso      1.000     O          -0.54363  
         O30       1.0000    0.97960   0.61530   0.72400   Biso      1.000     O          -0.58317  
         O31       1.0000    0.04090   0.59910   0.54700   Biso      1.000     O          -0.53373  
         O32       1.0000    0.31293   0.28197   0.39067   Biso      1.000     O          -0.583272           
         O33       1.0000    0.75133   0.05337   0.83167   Biso      1.000     O          -0.544324           
         O34       1.0000    0.55820   0.95910   0.54700   Biso      1.000     O          -0.532193           
         O35       1.0000    0.63570   0.02040   0.72400   Biso      1.000     O          -0.583404           
         O36       1.0000    0.59910   0.55820   0.45300   Biso      1.000     O          -0.532072           
         O37       1.0000    0.36463   0.08467   0.50167   Biso      1.000     O          -0.54657  
         O38       1.0000    0.35373   0.05137   0.94267   Biso      1.000     O          -0.583261           
         O39       1.0000    0.29243   0.06757   0.11967   Biso      1.000     O          -0.531973           
         O40       1.0000    0.69797   0.75133   0.16833   Biso      1.000     O          -0.546992           
         O41       1.0000    0.68707   0.71803   0.60933   Biso      1.000     O          -0.583403           
         O42       1.0000    0.62577   0.73423   0.78633   Biso      1.000     O          -0.532052           
         O43       1.0000    0.03130   0.41800   0.83500   Biso      1.000     O          -0.542744           
         O44       1.0000    0.02040   0.38470   0.27600   Biso      1.000     O          -0.582311           
         O45       1.0000    0.95910   0.40090   0.45300   Biso      1.000     O          -0.5332   
         O46       1.0000    0.69763   0.64627   0.94267   Biso      1.000     O          -0.583301           
         O47       1.0000    0.96903   0.68707   0.39067   Biso      1.000     O          -0.583514           
         O48       1.0000    0.89153   0.62577   0.21367   Biso      1.000     O          -0.53752  
         O49       1.0000    0.27997   0.36463   0.49833   Biso      1.000     O          -0.545493           
         O50       1.0000    0.30237   0.35373   0.05733   Biso      1.000     O          -0.583066           
         O51       1.0000    0.22487   0.29243   0.88033   Biso      1.000     O          -0.531878           
         O52       1.0000    0.61330   0.03130   0.16500   Biso      1.000     O          -0.54709  
         O53       1.0000    0.58200   0.61330   0.83500   Biso      1.000     O          -0.546491           
         O54       1.0000    0.72003   0.63537   0.50167   Biso      1.000     O          -0.544393 