
##########################################################################
#               Crystallographic Information Format file
#               Produced by PyCifRW module
#
#  This is a CIF file.  CIF has been adopted by the International
#  Union of Crystallography as the standard for data archiving and
#  transmission.
#
#  For information on this file format, follow the CIF links at
#  http://www.iucr.org
##########################################################################

data_image0

_cell_length_a                          25.8592
_cell_length_b                          25.8592
_cell_length_c                          6.2696
_cell_angle_alpha                       90
_cell_angle_beta                        90
_cell_angle_gamma                       120
_symmetry_space_group_name_H-M          'P 1'
_symmetry_int_tables_number             1
loop_
  _symmetry_equiv_pos_as_xyz
         'x, y, z' 
loop_
  _atom_site_label
  _atom_site_occupancy
  _atom_site_fract_x
  _atom_site_fract_y
  _atom_site_fract_z
  _atom_site_thermal_displace_type
  _atom_site_B_iso_or_equiv
  _atom_site_type_symbol
  _atom_site_charge
         C1        1.0000    0.20987   0.86933   0.47733   Biso      1.000     C          -0.133075           
         C2        1.0000    0.58230   0.99500   0.71000   Biso      1.000     C          0.650466  
         C3        1.0000    0.66167   0.74603   0.62333   Biso      1.000     C          0.650863  
         C4        1.0000    0.64437   0.83143   0.54133   Biso      1.000     C          -0.16406600000000002          
         C5        1.0000    0.65947   0.79013   0.47733   Biso      1.000     C          -0.13314600000000001          
         C6        1.0000    0.67907   0.78823   0.26133   Biso      1.000     C          0.272198  
         C7        1.0000    0.78823   0.10917   0.73867   Biso      1.000     C          0.27211199999999997           
         C8        1.0000    0.79013   0.13067   0.52267   Biso      1.000     C          -0.133076           
         C9        1.0000    0.83143   0.18707   0.45867   Biso      1.000     C          -0.164267           
         C10       1.0000    0.74603   0.08437   0.37667   Biso      1.000     C          0.650605  
         C11       1.0000    0.87653   0.20267   0.81067   Biso      1.000     C          -0.133089           
         C12       1.0000    0.08437   0.33833   0.62333   Biso      1.000     C          0.650169  
         C13       1.0000    0.18707   0.35563   0.54133   Biso      1.000     C          -0.164231           
         C14       1.0000    0.13067   0.34053   0.47733   Biso      1.000     C          -0.133056           
         C15       1.0000    0.83523   0.14627   0.87467   Biso      1.000     C          -0.164098           
         C16       1.0000    0.12157   0.77583   0.40533   Biso      1.000     C          0.272302  
         C17       1.0000    0.47960   0.97770   0.79200   Biso      1.000     C          -0.164175           
         C18       1.0000    0.53600   0.99280   0.85600   Biso      1.000     C          -0.133023           
         C19       1.0000    0.55750   0.01240   0.07200   Biso      1.000     C          0.272221  
         C20       1.0000    0.87843   0.22417   0.59467   Biso      1.000     C          0.272303  
         C21       1.0000    0.86933   0.65947   0.52267   Biso      1.000     C          -0.13305999999999998          
         C22       1.0000    0.81293   0.64437   0.45867   Biso      1.000     C          -0.16422  
         C23       1.0000    0.91563   0.66167   0.37667   Biso      1.000     C          0.6501680000000001  
         C24       1.0000    0.99500   0.41270   0.29000   Biso      1.000     C          0.6504850000000001  
         C25       1.0000    0.41770   0.00500   0.29000   Biso      1.000     C          0.650465  
         C26       1.0000    0.52040   0.02230   0.20800   Biso      1.000     C          -0.164175           
         C27       1.0000    0.46400   0.00720   0.14400   Biso      1.000     C          -0.133023           
         C28       1.0000    0.12347   0.79733   0.18933   Biso      1.000     C          -0.133089           
         C29       1.0000    0.97770   0.49810   0.20800   Biso      1.000     C          -0.164182           
         C30       1.0000    0.20267   0.32613   0.18933   Biso      1.000     C          -0.133293           
         C31       1.0000    0.14627   0.31103   0.12533   Biso      1.000     C          -0.16398  
         C32       1.0000    0.24897   0.32833   0.04333   Biso      1.000     C          0.65086   
         C33       1.0000    0.99280   0.45680   0.14400   Biso      1.000     C          -0.133011           
         C34       1.0000    0.44250   0.98760   0.92800   Biso      1.000     C          0.27221999999999996           
         C35       1.0000    0.01240   0.45490   0.92800   Biso      1.000     C          0.272194  
         C36       1.0000    0.16857   0.81293   0.54133   Biso      1.000     C          -0.16426300000000002          
         C37       1.0000    0.22417   0.34573   0.40533   Biso      1.000     C          0.27226500000000003           
         C38       1.0000    0.89083   0.67907   0.73867   Biso      1.000     C          0.27228800000000003           
         C39       1.0000    0.16477   0.85373   0.12533   Biso      1.000     C          -0.164095           
         C40       1.0000    0.92063   0.24897   0.95667   Biso      1.000     C          0.650658  
         C41       1.0000    0.85373   0.68897   0.87467   Biso      1.000     C          -0.163982           
         C42       1.0000    0.79733   0.67387   0.81067   Biso      1.000     C          -0.133285           
         C43       1.0000    0.54320   0.53600   0.14400   Biso      1.000     C          -0.133023           
         C44       1.0000    0.65427   0.87843   0.40533   Biso      1.000     C          0.272142  
         C45       1.0000    0.67387   0.87653   0.18933   Biso      1.000     C          -0.133113           
         C46       1.0000    0.68897   0.83523   0.12533   Biso      1.000     C          -0.16409300000000002          
         C47       1.0000    0.67167   0.92063   0.04333   Biso      1.000     C          0.65033   
         C48       1.0000    0.54510   0.55750   0.92800   Biso      1.000     C          0.27221   
         C49       1.0000    0.77583   0.65427   0.59467   Biso      1.000     C          0.272264  
         C50       1.0000    0.21177   0.89083   0.26133   Biso      1.000     C          0.272113  
         C51       1.0000    0.25397   0.91563   0.62333   Biso      1.000     C          0.650604  
         C52       1.0000    0.98760   0.54510   0.07200   Biso      1.000     C          0.272194  
         C53       1.0000    0.00720   0.54320   0.85600   Biso      1.000     C          -0.133018           
         C54       1.0000    0.02230   0.50190   0.79200   Biso      1.000     C          -0.164175           
         C55       1.0000    0.00500   0.58730   0.71000   Biso      1.000     C          0.6504840000000001  
         C56       1.0000    0.75103   0.67167   0.95667   Biso      1.000     C          0.650859  
         C57       1.0000    0.07937   0.75103   0.04333   Biso      1.000     C          0.6506569999999999  
         C58       1.0000    0.50190   0.47960   0.20800   Biso      1.000     C          -0.164177           
         C59       1.0000    0.35563   0.16857   0.45867   Biso      1.000     C          -0.16406600000000002          
         C60       1.0000    0.10917   0.32093   0.26133   Biso      1.000     C          0.27228600000000003           
         C61       1.0000    0.32833   0.07937   0.95667   Biso      1.000     C          0.650328  
         C62       1.0000    0.31103   0.16477   0.87467   Biso      1.000     C          -0.164099           
         C63       1.0000    0.45490   0.44250   0.07200   Biso      1.000     C          0.27221300000000004           
         C64       1.0000    0.45680   0.46400   0.85600   Biso      1.000     C          -0.133023           
         C65       1.0000    0.49810   0.52040   0.79200   Biso      1.000     C          -0.16417400000000001          
         C66       1.0000    0.33833   0.25397   0.37667   Biso      1.000     C          0.650863  
         C67       1.0000    0.41270   0.41770   0.71000   Biso      1.000     C          0.650468  
         C68       1.0000    0.34573   0.12157   0.59467   Biso      1.000     C          0.27214   
         C69       1.0000    0.58730   0.58230   0.29000   Biso      1.000     C          0.650467  
         C70       1.0000    0.32093   0.21177   0.73867   Biso      1.000     C          0.27219899999999997           
         C71       1.0000    0.34053   0.20987   0.52267   Biso      1.000     C          -0.13314600000000001          
         C72       1.0000    0.32613   0.12347   0.81067   Biso      1.000     C          -0.133107           
         Cu1       1.0000    0.96283   0.35027   0.68067   Biso      1.000     Cu          0.9037139999999999  
         Cu2       1.0000    0.62950   0.68360   0.01400   Biso      1.000     Cu          0.903768  
         Cu3       1.0000    0.29617   0.01693   0.34733   Biso      1.000     Cu          0.903515  
         Cu4       1.0000    0.72077   0.70383   0.34733   Biso      1.000     Cu          0.9037860000000001  
         Cu5       1.0000    0.38743   0.03717   0.68067   Biso      1.000     Cu          0.9035129999999999  
         Cu6       1.0000    0.05410   0.37050   0.01400   Biso      1.000     Cu          0.903603  
         Cu7       1.0000    0.94590   0.62950   0.98600   Biso      1.000     Cu          0.903603  
         Cu8       1.0000    0.37050   0.31640   0.98600   Biso      1.000     Cu          0.9037700000000001  
         Cu9       1.0000    0.98307   0.27923   0.34733   Biso      1.000     Cu          0.903616  
         Cu10      1.0000    0.03717   0.64973   0.31933   Biso      1.000     Cu          0.903701  
         Cu11      1.0000    0.68360   0.05410   0.98600   Biso      1.000     Cu          0.9037569999999999  
         Cu12      1.0000    0.31640   0.94590   0.01400   Biso      1.000     Cu          0.903753  
         Cu13      1.0000    0.64973   0.61257   0.68067   Biso      1.000     Cu          0.90374   
         Cu14      1.0000    0.70383   0.98307   0.65267   Biso      1.000     Cu          0.9035190000000001  
         Cu15      1.0000    0.35027   0.38743   0.31933   Biso      1.000     Cu          0.90375   
         Cu16      1.0000    0.61257   0.96283   0.31933   Biso      1.000     Cu          0.903515  
         Cu17      1.0000    0.01693   0.72077   0.65267   Biso      1.000     Cu          0.903611  
         Cu18      1.0000    0.27923   0.29617   0.65267   Biso      1.000     Cu          0.9037860000000001  
         H1        1.0000    0.50700   0.47210   0.36600   Biso      1.000     H          0.14119500000000001           
         H2        1.0000    0.49300   0.52790   0.63400   Biso      1.000     H          0.14119600000000002           
         H3        1.0000    0.70157   0.84033   0.96733   Biso      1.000     H          0.141206  
         H4        1.0000    0.15967   0.86123   0.96733   Biso      1.000     H          0.141181  
         H5        1.0000    0.29843   0.15967   0.03267   Biso      1.000     H          0.141206  
         H6        1.0000    0.19457   0.36823   0.69933   Biso      1.000     H          0.141221  
         H7        1.0000    0.82633   0.19457   0.30067   Biso      1.000     H          0.141264  
         H8        1.0000    0.17367   0.80543   0.69933   Biso      1.000     H          0.141266  
         H9        1.0000    0.86123   0.70157   0.03267   Biso      1.000     H          0.14110999999999999           
         H10       1.0000    0.47210   0.96510   0.63400   Biso      1.000     H          0.14119600000000002           
         H11       1.0000    0.84033   0.13877   0.03267   Biso      1.000     H          0.141181  
         H12       1.0000    0.96510   0.49300   0.36600   Biso      1.000     H          0.141198  
         H13       1.0000    0.52790   0.03490   0.36600   Biso      1.000     H          0.14119600000000002           
         H14       1.0000    0.13877   0.29843   0.96733   Biso      1.000     H          0.14110699999999998           
         H15       1.0000    0.80543   0.63177   0.30067   Biso      1.000     H          0.14122200000000001           
         H16       1.0000    0.03490   0.50700   0.63400   Biso      1.000     H          0.14119600000000002           
         H17       1.0000    0.63177   0.82633   0.69933   Biso      1.000     H          0.141132  
         H18       1.0000    0.36823   0.17367   0.30067   Biso      1.000     H          0.14113299999999998           
         O1        1.0000    0.26437   0.89233   0.78433   Biso      1.000     O          -0.53696  
         O2        1.0000    0.77433   0.70537   0.11767   Biso      1.000     O          -0.5369079999999999           
         O3        1.0000    0.91633   0.27967   0.51467   Biso      1.000     O          -0.552416           
         O4        1.0000    0.24967   0.94633   0.18133   Biso      1.000     O          -0.552307           
         O5        1.0000    0.05367   0.30333   0.18133   Biso      1.000     O          -0.552399           
         O6        1.0000    0.03117   0.31493   0.59533   Biso      1.000     O          -0.580866           
         O7        1.0000    0.10767   0.37203   0.78433   Biso      1.000     O          -0.5367350000000001           
         O8        1.0000    0.38700   0.97000   0.84800   Biso      1.000     O          -0.552429           
         O9        1.0000    0.36450   0.98160   0.26200   Biso      1.000     O          -0.581168           
         O10       1.0000    0.93103   0.22567   0.11767   Biso      1.000     O          -0.536826           
         O11       1.0000    0.95043   0.30217   0.92867   Biso      1.000     O          -0.581333           
         O12       1.0000    0.28377   0.96883   0.59533   Biso      1.000     O          -0.581041           
         O13       1.0000    0.44100   0.03870   0.45100   Biso      1.000     O          -0.53675  
         O14       1.0000    0.94633   0.69667   0.81867   Biso      1.000     O          -0.552392           
         O15       1.0000    0.61710   0.63550   0.26200   Biso      1.000     O          -0.581164           
         O16       1.0000    0.73563   0.10767   0.21567   Biso      1.000     O          -0.5369619999999999           
         O17       1.0000    0.08367   0.72033   0.48533   Biso      1.000     O          -0.552409           
         O18       1.0000    0.04957   0.69783   0.07133   Biso      1.000     O          -0.581328           
         O19       1.0000    0.06897   0.77433   0.88233   Biso      1.000     O          -0.536821           
         O20       1.0000    0.41700   0.38700   0.15200   Biso      1.000     O          -0.552473           
         O21       1.0000    0.38290   0.36450   0.73800   Biso      1.000     O          -0.581164           
         O22       1.0000    0.40230   0.44100   0.54900   Biso      1.000     O          -0.536804           
         O23       1.0000    0.71623   0.03117   0.40467   Biso      1.000     O          -0.581045           
         O24       1.0000    0.30333   0.24967   0.81867   Biso      1.000     O          -0.552453           
         O25       1.0000    0.37203   0.26437   0.21567   Biso      1.000     O          -0.536922           
         O26       1.0000    0.63667   0.91633   0.48533   Biso      1.000     O          -0.552305           
         O27       1.0000    0.64827   0.95043   0.07133   Biso      1.000     O          -0.580813           
         O28       1.0000    0.70537   0.93103   0.88233   Biso      1.000     O          -0.536896           
         O29       1.0000    0.97000   0.58300   0.15200   Biso      1.000     O          -0.552383           
         O30       1.0000    0.98160   0.61710   0.73800   Biso      1.000     O          -0.58112  
         O31       1.0000    0.03870   0.59770   0.54900   Biso      1.000     O          -0.536808           
         O32       1.0000    0.31493   0.28377   0.40467   Biso      1.000     O          -0.581421           
         O33       1.0000    0.75033   0.05367   0.81867   Biso      1.000     O          -0.5523100000000001           
         O34       1.0000    0.55900   0.96130   0.54900   Biso      1.000     O          -0.536754           
         O35       1.0000    0.63550   0.01840   0.73800   Biso      1.000     O          -0.58117  
         O36       1.0000    0.59770   0.55900   0.45100   Biso      1.000     O          -0.536799           
         O37       1.0000    0.36333   0.08367   0.51467   Biso      1.000     O          -0.5523020000000001           
         O38       1.0000    0.35173   0.04957   0.92867   Biso      1.000     O          -0.580813           
         O39       1.0000    0.29463   0.06897   0.11767   Biso      1.000     O          -0.5368930000000001           
         O40       1.0000    0.69667   0.75033   0.18133   Biso      1.000     O          -0.552452           
         O41       1.0000    0.68507   0.71623   0.59533   Biso      1.000     O          -0.581421           
         O42       1.0000    0.62797   0.73563   0.78433   Biso      1.000     O          -0.5369189999999999           
         O43       1.0000    0.03000   0.41700   0.84800   Biso      1.000     O          -0.552387           
         O44       1.0000    0.01840   0.38290   0.26200   Biso      1.000     O          -0.581122           
         O45       1.0000    0.96130   0.40230   0.45100   Biso      1.000     O          -0.536816           
         O46       1.0000    0.69783   0.64827   0.92867   Biso      1.000     O          -0.58136  
         O47       1.0000    0.96883   0.68507   0.40467   Biso      1.000     O          -0.580859           
         O48       1.0000    0.89233   0.62797   0.21567   Biso      1.000     O          -0.536725           
         O49       1.0000    0.27967   0.36333   0.48533   Biso      1.000     O          -0.552413           
         O50       1.0000    0.30217   0.35173   0.07133   Biso      1.000     O          -0.581367           
         O51       1.0000    0.22567   0.29463   0.88233   Biso      1.000     O          -0.536909           
         O52       1.0000    0.61300   0.03000   0.15200   Biso      1.000     O          -0.552431           
         O53       1.0000    0.58300   0.61300   0.84800   Biso      1.000     O          -0.552467           
         O54       1.0000    0.72033   0.63667   0.51467   Biso      1.000     O          -0.552408 