
##########################################################################
#               Crystallographic Information Format file
#               Produced by PyCifRW module
#
#  This is a CIF file.  CIF has been adopted by the International
#  Union of Crystallography as the standard for data archiving and
#  transmission.
#
#  For information on this file format, follow the CIF links at
#  http://www.iucr.org
##########################################################################

data_image0

_cell_length_a                          8.6559
_cell_length_b                          9.1999
_cell_length_c                          15.857
_cell_angle_alpha                       90
_cell_angle_beta                        90
_cell_angle_gamma                       114.438
_symmetry_space_group_name_H-M          'P 1'
_symmetry_int_tables_number             1
loop_
  _symmetry_equiv_pos_as_xyz
         'x, y, z' 
loop_
  _atom_site_label
  _atom_site_occupancy
  _atom_site_fract_x
  _atom_site_fract_y
  _atom_site_fract_z
  _atom_site_thermal_displace_type
  _atom_site_B_iso_or_equiv
  _atom_site_type_symbol
  _atom_site_charge
         C1        1.0000    0.60340   0.52990   0.30610   Biso      1.000     C          0.671696  
         C2        1.0000    0.27330   0.81850   0.20230   Biso      1.000     C          -0.182598           
         C3        1.0000    0.04000   0.38770   0.40570   Biso      1.000     C          0.723387  
         C4        1.0000    0.10340   0.52990   0.19390   Biso      1.000     C          0.671696  
         C5        1.0000    0.26480   0.67550   0.18420   Biso      1.000     C          -0.13131800000000002          
         C6        1.0000    0.05590   0.47340   0.48740   Biso      1.000     C          -0.185003           
         C7        1.0000    0.77330   0.81850   0.29770   Biso      1.000     C          -0.182597           
         C8        1.0000    0.54000   0.38770   0.09430   Biso      1.000     C          0.723382  
         C9        1.0000    0.44410   0.52660   0.98740   Biso      1.000     C          -0.185003           
         C10       1.0000    0.93270   0.96510   0.29610   Biso      1.000     C          0.677892  
         C11       1.0000    0.55590   0.47340   0.01260   Biso      1.000     C          -0.18495899999999998          
         C12       1.0000    0.72670   0.18150   0.79770   Biso      1.000     C          -0.182597           
         C13       1.0000    0.96000   0.61230   0.59430   Biso      1.000     C          0.723382  
         C14       1.0000    0.56730   0.03490   0.79610   Biso      1.000     C          0.677892  
         C15       1.0000    0.89660   0.47010   0.80610   Biso      1.000     C          0.671696  
         C16       1.0000    0.73520   0.32450   0.81580   Biso      1.000     C          -0.13131800000000002          
         C17       1.0000    0.94410   0.52660   0.51260   Biso      1.000     C          -0.18495899999999998          
         C18       1.0000    0.76480   0.67550   0.31580   Biso      1.000     C          -0.13131800000000002          
         C19       1.0000    0.23520   0.32450   0.68420   Biso      1.000     C          -0.131357           
         C20       1.0000    0.43270   0.96510   0.20390   Biso      1.000     C          0.677892  
         C21       1.0000    0.06730   0.03490   0.70390   Biso      1.000     C          0.677888  
         C22       1.0000    0.46000   0.61230   0.90570   Biso      1.000     C          0.723387  
         C23       1.0000    0.22670   0.18150   0.70230   Biso      1.000     C          -0.182559           
         C24       1.0000    0.39660   0.47010   0.69390   Biso      1.000     C          0.6716989999999999  
         H1        1.0000    0.36300   0.52100   0.02200   Biso      1.000     H          0.142854  
         H2        1.0000    0.13600   0.33900   0.67300   Biso      1.000     H          0.14510599999999998           
         H3        1.0000    0.13700   0.47900   0.52200   Biso      1.000     H          0.142854  
         H4        1.0000    0.36400   0.66100   0.17300   Biso      1.000     H          0.14510399999999998           
         H5        1.0000    0.18200   0.83900   0.22000   Biso      1.000     H          0.13475499999999999           
         H6        1.0000    0.31800   0.16100   0.72000   Biso      1.000     H          0.13475299999999998           
         H7        1.0000    0.86400   0.66100   0.32700   Biso      1.000     H          0.14510399999999998           
         H8        1.0000    0.68200   0.83900   0.28000   Biso      1.000     H          0.13475499999999999           
         H9        1.0000    0.86300   0.52100   0.47800   Biso      1.000     H          0.142851  
         H10       1.0000    0.63600   0.33900   0.82700   Biso      1.000     H          0.14510399999999998           
         H11       1.0000    0.81800   0.16100   0.78000   Biso      1.000     H          0.13475499999999999           
         H12       1.0000    0.63700   0.47900   0.97800   Biso      1.000     H          0.142851  
         O1        1.0000    0.11150   0.39790   0.20803   Biso      1.000     O          -0.750306           
         O2        1.0000    0.64800   0.33230   0.10850   Biso      1.000     O          -0.679944           
         O3        1.0000    0.42150   0.37770   0.14220   Biso      1.000     O          -0.6917449999999999           
         O4        1.0000    0.06900   0.96610   0.32350   Biso      1.000     O          -0.622663           
         O5        1.0000    0.46260   0.53940   0.31040   Biso      1.000     O          -0.6014649999999999           
         O6        1.0000    0.03740   0.46060   0.81040   Biso      1.000     O          -0.601464           
         O7        1.0000    0.61150   0.39790   0.29197   Biso      1.000     O          -0.750306           
         O8        1.0000    0.43100   0.03390   0.82350   Biso      1.000     O          -0.622664           
         O9        1.0000    0.07850   0.62230   0.64220   Biso      1.000     O          -0.6917449999999999           
         O10       1.0000    0.42950   0.08990   0.23670   Biso      1.000     O          -0.7894680000000001           
         O11       1.0000    0.85200   0.66770   0.60850   Biso      1.000     O          -0.6799430000000001           
         O12       1.0000    0.92950   0.08990   0.26330   Biso      1.000     O          -0.7894680000000001           
         O13       1.0000    0.96260   0.53940   0.18960   Biso      1.000     O          -0.6014649999999999           
         O14       1.0000    0.88850   0.60210   0.79197   Biso      1.000     O          -0.750306           
         O15       1.0000    0.92150   0.37770   0.35780   Biso      1.000     O          -0.691746           
         O16       1.0000    0.14800   0.33230   0.39150   Biso      1.000     O          -0.6799430000000001           
         O17       1.0000    0.38850   0.60210   0.70803   Biso      1.000     O          -0.750306           
         O18       1.0000    0.07050   0.91010   0.73670   Biso      1.000     O          -0.7894680000000001           
         O19       1.0000    0.53740   0.46060   0.68960   Biso      1.000     O          -0.6014649999999999           
         O20       1.0000    0.93100   0.03390   0.67650   Biso      1.000     O          -0.622663           
         O21       1.0000    0.57850   0.62230   0.85780   Biso      1.000     O          -0.691746           
         O22       1.0000    0.35200   0.66770   0.89150   Biso      1.000     O          -0.6799430000000001           
         O23       1.0000    0.57050   0.91010   0.76330   Biso      1.000     O          -0.7894680000000001           
         O24       1.0000    0.56900   0.96610   0.17650   Biso      1.000     O          -0.622663           
         Pr1       1.0000    0.23237   0.74917   0.76899   Biso      1.000     Pr          2.138803  
         Pr2       1.0000    0.26763   0.25083   0.26899   Biso      1.000     Pr          2.138803  
         Pr3       1.0000    0.76763   0.25083   0.23101   Biso      1.000     Pr          2.138803  
         Pr4       1.0000    0.73237   0.74917   0.73101   Biso      1.000     Pr          2.138803 