
##########################################################################
#               Crystallographic Information Format file
#               Produced by PyCifRW module
#
#  This is a CIF file.  CIF has been adopted by the International
#  Union of Crystallography as the standard for data archiving and
#  transmission.
#
#  For information on this file format, follow the CIF links at
#  http://www.iucr.org
##########################################################################

data_image0

_cell_length_a                          12.133
_cell_length_b                          25.156
_cell_length_c                          7.6373
_cell_angle_alpha                       90
_cell_angle_beta                        93.317
_cell_angle_gamma                       90
_symmetry_space_group_name_H-M          'P 1'
_symmetry_int_tables_number             1
loop_
  _symmetry_equiv_pos_as_xyz
         'x, y, z' 
loop_
  _atom_site_label
  _atom_site_occupancy
  _atom_site_fract_x
  _atom_site_fract_y
  _atom_site_fract_z
  _atom_site_thermal_displace_type
  _atom_site_B_iso_or_equiv
  _atom_site_type_symbol
  _atom_site_charge
         Au1       1.0000    0.00000   0.00000   0.50000   Biso      1.000     Au          0.026624  
         Au2       1.0000    0.00000   0.00000   0.00000   Biso      1.000     Au          0.026672  
         Au3       1.0000    0.50000   0.50000   0.00000   Biso      1.000     Au          0.026628  
         Au4       1.0000    0.00000   0.89271   0.25000   Biso      1.000     Au          0.019156  
         Au5       1.0000    0.50000   0.39271   0.25000   Biso      1.000     Au          0.019209  
         Au6       1.0000    0.00000   0.10729   0.75000   Biso      1.000     Au          0.019174  
         Au7       1.0000    0.50000   0.60729   0.75000   Biso      1.000     Au          0.0192    
         Au8       1.0000    0.50000   0.50000   0.50000   Biso      1.000     Au          0.026645  
         C1        1.0000    0.58430   0.22070   0.56250   Biso      1.000     C          0.032147  
         C2        1.0000    0.67880   0.21200   0.66730   Biso      1.000     C          -0.135967           
         C3        1.0000    0.97210   0.32740   0.53090   Biso      1.000     C          0.595139  
         C4        1.0000    0.76820   0.24480   0.25760   Biso      1.000     C          0.078131  
         C5        1.0000    0.82120   0.28800   0.33270   Biso      1.000     C          -0.135989           
         C6        1.0000    0.91570   0.27930   0.43750   Biso      1.000     C          0.03213   
         C7        1.0000    0.95090   0.23260   0.45880   Biso      1.000     C          -0.160881           
         C8        1.0000    0.86770   0.11230   0.88920   Biso      1.000     C          0.099283  
         C9        1.0000    0.86930   0.04070   0.40580   Biso      1.000     C          0.099118  
         C10       1.0000    0.73180   0.25520   0.74240   Biso      1.000     C          0.078143  
         C11       1.0000    0.52790   0.17260   0.46910   Biso      1.000     C          0.595123  
         C12       1.0000    0.13230   0.88770   0.11080   Biso      1.000     C          0.099279  
         C13       1.0000    0.47210   0.82740   0.53090   Biso      1.000     C          0.59512   
         C14       1.0000    0.26820   0.74480   0.25760   Biso      1.000     C          0.078129  
         C15       1.0000    0.32120   0.78800   0.33270   Biso      1.000     C          -0.135943           
         C16       1.0000    0.89430   0.18830   0.38990   Biso      1.000     C          0.084611  
         C17       1.0000    0.54910   0.26740   0.54120   Biso      1.000     C          -0.160874           
         C18       1.0000    0.39430   0.31170   0.88990   Biso      1.000     C          0.084581  
         C19       1.0000    0.36930   0.45930   0.90580   Biso      1.000     C          0.099155  
         C20       1.0000    0.82120   0.71200   0.83270   Biso      1.000     C          -0.135993           
         C21       1.0000    0.91570   0.72070   0.93750   Biso      1.000     C          0.032123  
         C22       1.0000    0.95090   0.76740   0.95880   Biso      1.000     C          -0.160863           
         C23       1.0000    0.89430   0.81170   0.88990   Biso      1.000     C          0.084639  
         C24       1.0000    0.86930   0.95930   0.90580   Biso      1.000     C          0.099244  
         C25       1.0000    0.86770   0.88770   0.38920   Biso      1.000     C          0.099358  
         C26       1.0000    0.97210   0.67260   0.03090   Biso      1.000     C          0.595178  
         C27       1.0000    0.36770   0.38770   0.38920   Biso      1.000     C          0.099304  
         C28       1.0000    0.63230   0.38770   0.11080   Biso      1.000     C          0.099324  
         C29       1.0000    0.60570   0.31170   0.61010   Biso      1.000     C          0.08459   
         C30       1.0000    0.47210   0.17260   0.03090   Biso      1.000     C          0.595135  
         C31       1.0000    0.26820   0.25520   0.75760   Biso      1.000     C          0.078126  
         C32       1.0000    0.32120   0.21200   0.83270   Biso      1.000     C          -0.135972           
         C33       1.0000    0.41570   0.22070   0.93750   Biso      1.000     C          0.032136  
         C34       1.0000    0.45090   0.26740   0.95880   Biso      1.000     C          -0.160882           
         C35       1.0000    0.41570   0.77930   0.43750   Biso      1.000     C          0.032151  
         C36       1.0000    0.63070   0.45930   0.59420   Biso      1.000     C          0.099179  
         C37       1.0000    0.45090   0.73260   0.45880   Biso      1.000     C          -0.160886           
         C38       1.0000    0.76820   0.75520   0.75760   Biso      1.000     C          0.078155  
         C39       1.0000    0.39430   0.68830   0.38990   Biso      1.000     C          0.08459   
         C40       1.0000    0.08430   0.27930   0.06250   Biso      1.000     C          0.032131  
         C41       1.0000    0.04910   0.23260   0.04120   Biso      1.000     C          -0.160879           
         C42       1.0000    0.13070   0.04070   0.09420   Biso      1.000     C          0.099226  
         C43       1.0000    0.13230   0.11230   0.61080   Biso      1.000     C          0.099357  
         C44       1.0000    0.17880   0.71200   0.66730   Biso      1.000     C          -0.136017           
         C45       1.0000    0.23180   0.75520   0.74240   Biso      1.000     C          0.078144  
         C46       1.0000    0.02790   0.67260   0.46910   Biso      1.000     C          0.595174  
         C47       1.0000    0.52790   0.82740   0.96910   Biso      1.000     C          0.595136  
         C48       1.0000    0.73180   0.74480   0.24240   Biso      1.000     C          0.078127  
         C49       1.0000    0.67880   0.78800   0.16730   Biso      1.000     C          -0.135958           
         C50       1.0000    0.58430   0.77930   0.06250   Biso      1.000     C          0.032147  
         C51       1.0000    0.54910   0.73260   0.04120   Biso      1.000     C          -0.160877           
         C52       1.0000    0.60570   0.68830   0.11010   Biso      1.000     C          0.084597  
         C53       1.0000    0.63070   0.54070   0.09420   Biso      1.000     C          0.099245  
         C54       1.0000    0.63230   0.61230   0.61080   Biso      1.000     C          0.099386  
         C55       1.0000    0.17880   0.28800   0.16730   Biso      1.000     C          -0.13598  
         C56       1.0000    0.23180   0.24480   0.24240   Biso      1.000     C          0.078144  
         C57       1.0000    0.10570   0.18830   0.11010   Biso      1.000     C          0.08461   
         C58       1.0000    0.36930   0.54070   0.40580   Biso      1.000     C          0.099243  
         C59       1.0000    0.04910   0.76740   0.54120   Biso      1.000     C          -0.160966           
         C60       1.0000    0.02790   0.32740   0.96910   Biso      1.000     C          0.595131  
         C61       1.0000    0.36770   0.61230   0.88920   Biso      1.000     C          0.099383  
         C62       1.0000    0.08430   0.72070   0.56250   Biso      1.000     C          0.032179  
         C63       1.0000    0.10570   0.81170   0.61010   Biso      1.000     C          0.084633  
         C64       1.0000    0.13070   0.95930   0.59420   Biso      1.000     C          0.099141  
         H1        1.0000    0.01740   0.22730   0.52320   Biso      1.000     H          0.117283  
         H2        1.0000    0.20680   0.24930   0.68130   Biso      1.000     H          0.093085  
         H3        1.0000    0.79320   0.75070   0.31870   Biso      1.000     H          0.093086  
         H4        1.0000    0.70590   0.82230   0.18660   Biso      1.000     H          0.130266  
         H5        1.0000    0.79410   0.67770   0.81340   Biso      1.000     H          0.130254  
         H6        1.0000    0.48260   0.72730   0.97680   Biso      1.000     H          0.117278  
         H7        1.0000    0.07860   0.84570   0.58630   Biso      1.000     H          0.084557  
         H8        1.0000    0.29410   0.82230   0.31340   Biso      1.000     H          0.130267  
         H9        1.0000    0.57860   0.65430   0.08630   Biso      1.000     H          0.084537  
         H10       1.0000    0.92140   0.84570   0.91370   Biso      1.000     H          0.084563  
         H11       1.0000    0.01740   0.77270   0.02320   Biso      1.000     H          0.117291  
         H12       1.0000    0.51740   0.72730   0.52320   Biso      1.000     H          0.117273  
         H13       1.0000    0.70680   0.74930   0.68130   Biso      1.000     H          0.093091  
         H14       1.0000    0.29410   0.17770   0.81340   Biso      1.000     H          0.130261  
         H15       1.0000    0.20680   0.75070   0.18130   Biso      1.000     H          0.093085  
         H16       1.0000    0.29320   0.74930   0.81870   Biso      1.000     H          0.093083  
         H17       1.0000    0.20590   0.32230   0.18660   Biso      1.000     H          0.130252  
         H18       1.0000    0.29320   0.25070   0.31870   Biso      1.000     H          0.093086  
         H19       1.0000    0.79410   0.32230   0.31340   Biso      1.000     H          0.130257  
         H20       1.0000    0.70680   0.25070   0.18130   Biso      1.000     H          0.093092  
         H21       1.0000    0.98260   0.22730   0.97680   Biso      1.000     H          0.117283  
         H22       1.0000    0.07860   0.15430   0.08630   Biso      1.000     H          0.084557  
         H23       1.0000    0.48260   0.27270   0.47680   Biso      1.000     H          0.117284  
         H24       1.0000    0.92140   0.15430   0.41370   Biso      1.000     H          0.084563  
         H25       1.0000    0.42140   0.65430   0.41370   Biso      1.000     H          0.084534  
         H26       1.0000    0.57860   0.34570   0.58630   Biso      1.000     H          0.084547  
         H27       1.0000    0.98260   0.77270   0.47680   Biso      1.000     H          0.117283  
         H28       1.0000    0.79320   0.24930   0.81870   Biso      1.000     H          0.093096  
         H29       1.0000    0.20590   0.67770   0.68660   Biso      1.000     H          0.130248  
         H30       1.0000    0.42140   0.34570   0.91370   Biso      1.000     H          0.084542  
         H31       1.0000    0.51740   0.27270   0.02320   Biso      1.000     H          0.117276  
         H32       1.0000    0.70590   0.17770   0.68660   Biso      1.000     H          0.130277  
         Mn1       1.0000    0.80938   0.37642   0.79714   Biso      1.000     Mn          0.971274  
         Mn2       1.0000    0.30938   0.87642   0.79714   Biso      1.000     Mn          0.971279  
         Mn3       1.0000    0.80938   0.62358   0.29714   Biso      1.000     Mn          0.971666  
         Mn4       1.0000    0.19062   0.62358   0.20286   Biso      1.000     Mn          0.971618  
         Mn5       1.0000    0.19062   0.37642   0.70286   Biso      1.000     Mn          0.971221  
         Mn6       1.0000    0.69062   0.12358   0.20286   Biso      1.000     Mn          0.971034  
         Mn7       1.0000    0.30938   0.12358   0.29714   Biso      1.000     Mn          0.97154   
         Mn8       1.0000    0.69062   0.87642   0.70286   Biso      1.000     Mn          0.971622  
         N1        1.0000    0.20310   0.93380   0.64940   Biso      1.000     N          -0.375842           
         N2        1.0000    0.30040   0.69475   0.28880   Biso      1.000     N          -0.239897           
         N3        1.0000    0.29690   0.56620   0.35060   Biso      1.000     N          -0.37584  
         N4        1.0000    0.29450   0.61660   0.97360   Biso      1.000     N          -0.376803           
         N5        1.0000    0.19960   0.80525   0.71120   Biso      1.000     N          -0.239821           
         N6        1.0000    0.19960   0.19475   0.21120   Biso      1.000     N          -0.239859           
         N7        1.0000    0.20310   0.06620   0.14940   Biso      1.000     N          -0.375839           
         N8        1.0000    0.20550   0.11660   0.52640   Biso      1.000     N          -0.376811           
         N9        1.0000    0.69960   0.69475   0.21120   Biso      1.000     N          -0.239898           
         N10       1.0000    0.70310   0.56620   0.14940   Biso      1.000     N          -0.375861           
         N11       1.0000    0.70550   0.61660   0.52640   Biso      1.000     N          -0.376817           
         N12       1.0000    0.20550   0.88340   0.02640   Biso      1.000     N          -0.376801           
         N13       1.0000    0.79450   0.11660   0.97360   Biso      1.000     N          -0.376722           
         N14       1.0000    0.30040   0.30525   0.78880   Biso      1.000     N          -0.239831           
         N15       1.0000    0.80040   0.19475   0.28880   Biso      1.000     N          -0.239795           
         N16       1.0000    0.80040   0.80525   0.78880   Biso      1.000     N          -0.239852           
         N17       1.0000    0.70550   0.38340   0.02640   Biso      1.000     N          -0.376746           
         N18       1.0000    0.70310   0.43380   0.64940   Biso      1.000     N          -0.375767           
         N19       1.0000    0.69960   0.30525   0.71120   Biso      1.000     N          -0.239835           
         N20       1.0000    0.79690   0.93380   0.85060   Biso      1.000     N          -0.375858           
         N21       1.0000    0.79690   0.06620   0.35060   Biso      1.000     N          -0.375759           
         N22       1.0000    0.29690   0.43380   0.85060   Biso      1.000     N          -0.375774           
         N23       1.0000    0.79450   0.88340   0.47360   Biso      1.000     N          -0.37683  
         N24       1.0000    0.29450   0.38340   0.47360   Biso      1.000     N          -0.376752           
         O1        1.0000    0.41260   0.86691   0.56690   Biso      1.000     O          -0.573045           
         O2        1.0000    0.07390   0.32293   0.56900   Biso      1.000     O          -0.545653           
         O3        1.0000    0.91260   0.36691   0.56690   Biso      1.000     O          -0.573046           
         O4        1.0000    0.91260   0.63309   0.06690   Biso      1.000     O          -0.573064           
         O5        1.0000    0.42610   0.82293   0.93100   Biso      1.000     O          -0.545702           
         O6        1.0000    0.58740   0.86691   0.93310   Biso      1.000     O          -0.573068           
         O7        1.0000    0.92610   0.67707   0.43100   Biso      1.000     O          -0.545691           
         O8        1.0000    0.42610   0.17707   0.43100   Biso      1.000     O          -0.545722           
         O9        1.0000    0.58740   0.13309   0.43310   Biso      1.000     O          -0.573005           
         O10       1.0000    0.08740   0.63309   0.43310   Biso      1.000     O          -0.573067           
         O11       1.0000    0.92610   0.32293   0.93100   Biso      1.000     O          -0.545664           
         O12       1.0000    0.08740   0.36691   0.93310   Biso      1.000     O          -0.57305  
         O13       1.0000    0.41260   0.13309   0.06690   Biso      1.000     O          -0.573069           
         O14       1.0000    0.57390   0.17707   0.06900   Biso      1.000     O          -0.545649           
         O15       1.0000    0.57390   0.82293   0.56900   Biso      1.000     O          -0.545759           
         O16       1.0000    0.07390   0.67707   0.06900   Biso      1.000     O          -0.545668 