
##########################################################################
#               Crystallographic Information Format file
#               Produced by PyCifRW module
#
#  This is a CIF file.  CIF has been adopted by the International
#  Union of Crystallography as the standard for data archiving and
#  transmission.
#
#  For information on this file format, follow the CIF links at
#  http://www.iucr.org
##########################################################################

data_image0

_cell_length_a                          12.2383
_cell_length_b                          25.491
_cell_length_c                          7.5539
_cell_angle_alpha                       90
_cell_angle_beta                        94.329
_cell_angle_gamma                       90
_symmetry_space_group_name_H-M          'P 1'
_symmetry_int_tables_number             1
loop_
  _symmetry_equiv_pos_as_xyz
         'x, y, z' 
loop_
  _atom_site_label
  _atom_site_occupancy
  _atom_site_fract_x
  _atom_site_fract_y
  _atom_site_fract_z
  _atom_site_thermal_displace_type
  _atom_site_B_iso_or_equiv
  _atom_site_type_symbol
  _atom_site_charge
         Ag1       1.0000    0.50000   0.50000   0.50000   Biso      1.000     Ag          0.16248800000000002           
         Ag2       1.0000    0.50000   0.50000   0.00000   Biso      1.000     Ag          0.162484  
         Ag3       1.0000    0.00000   0.00000   0.00000   Biso      1.000     Ag          0.162485  
         Ag4       1.0000    0.50000   0.60289   0.75000   Biso      1.000     Ag          0.162089  
         Ag5       1.0000    0.00000   0.10289   0.75000   Biso      1.000     Ag          0.162131  
         Ag6       1.0000    0.50000   0.39711   0.25000   Biso      1.000     Ag          0.16213699999999998           
         Ag7       1.0000    0.00000   0.89711   0.25000   Biso      1.000     Ag          0.16208499999999998           
         Ag8       1.0000    0.00000   0.00000   0.50000   Biso      1.000     Ag          0.16248800000000002           
         C1        1.0000    0.63530   0.54260   0.08780   Biso      1.000     C          0.008583  
         C2        1.0000    0.63480   0.61040   0.60720   Biso      1.000     C          0.010084000000000001          
         C3        1.0000    0.02780   0.32630   0.96970   Biso      1.000     C          0.59653   
         C4        1.0000    0.10750   0.18890   0.10920   Biso      1.000     C          0.075047  
         C5        1.0000    0.04730   0.22924   0.03400   Biso      1.000     C          -0.164222           
         C6        1.0000    0.08520   0.27999   0.06210   Biso      1.000     C          0.027538999999999998          
         C7        1.0000    0.17850   0.28729   0.17000   Biso      1.000     C          -0.143663           
         C8        1.0000    0.52780   0.17370   0.46970   Biso      1.000     C          0.596531  
         C9        1.0000    0.13530   0.04260   0.08780   Biso      1.000     C          0.008515  
         C10       1.0000    0.13480   0.11040   0.60720   Biso      1.000     C          0.010043999999999999          
         C11       1.0000    0.73430   0.74406   0.24290   Biso      1.000     C          0.089801  
         C12       1.0000    0.60750   0.31110   0.60920   Biso      1.000     C          0.075048  
         C13       1.0000    0.54730   0.27076   0.53400   Biso      1.000     C          -0.16422  
         C14       1.0000    0.58520   0.22001   0.56210   Biso      1.000     C          0.02754   
         C15       1.0000    0.67850   0.21271   0.67000   Biso      1.000     C          -0.14366199999999998          
         C16       1.0000    0.73430   0.25594   0.74290   Biso      1.000     C          0.08980199999999999           
         C17       1.0000    0.23430   0.24406   0.24290   Biso      1.000     C          0.0898    
         C18       1.0000    0.67850   0.78729   0.17000   Biso      1.000     C          -0.14366900000000002          
         C19       1.0000    0.52780   0.82630   0.96970   Biso      1.000     C          0.596536  
         C20       1.0000    0.54730   0.72924   0.03400   Biso      1.000     C          -0.16423  
         C21       1.0000    0.47220   0.82630   0.53030   Biso      1.000     C          0.596539  
         C22       1.0000    0.39250   0.68890   0.39080   Biso      1.000     C          0.075059  
         C23       1.0000    0.45270   0.72924   0.46600   Biso      1.000     C          -0.164216           
         C24       1.0000    0.41480   0.77999   0.43790   Biso      1.000     C          0.027538  
         C25       1.0000    0.32150   0.78729   0.33000   Biso      1.000     C          -0.14366199999999998          
         C26       1.0000    0.26570   0.74406   0.25710   Biso      1.000     C          0.0898    
         C27       1.0000    0.36470   0.54260   0.41220   Biso      1.000     C          0.008583  
         C28       1.0000    0.36520   0.61040   0.89280   Biso      1.000     C          0.010081999999999999          
         C29       1.0000    0.58520   0.77999   0.06210   Biso      1.000     C          0.027547000000000002          
         C30       1.0000    0.97220   0.32630   0.53030   Biso      1.000     C          0.596533  
         C31       1.0000    0.95270   0.22924   0.46600   Biso      1.000     C          -0.164232           
         C32       1.0000    0.91480   0.27999   0.43790   Biso      1.000     C          0.027538  
         C33       1.0000    0.82150   0.28729   0.33000   Biso      1.000     C          -0.14366600000000002          
         C34       1.0000    0.76570   0.24406   0.25710   Biso      1.000     C          0.089796  
         C35       1.0000    0.86470   0.04260   0.41220   Biso      1.000     C          0.008503  
         C36       1.0000    0.86520   0.11040   0.89280   Biso      1.000     C          0.010029000000000001          
         C37       1.0000    0.63530   0.45740   0.58780   Biso      1.000     C          0.008514  
         C38       1.0000    0.60750   0.68890   0.10920   Biso      1.000     C          0.075067  
         C39       1.0000    0.89250   0.18890   0.39080   Biso      1.000     C          0.075057  
         C40       1.0000    0.63480   0.38960   0.10720   Biso      1.000     C          0.010043999999999999          
         C41       1.0000    0.86520   0.88960   0.39280   Biso      1.000     C          0.010062999999999999          
         C42       1.0000    0.47220   0.17370   0.03030   Biso      1.000     C          0.596534  
         C43       1.0000    0.13480   0.88960   0.10720   Biso      1.000     C          0.010077  
         C44       1.0000    0.13530   0.95740   0.58780   Biso      1.000     C          0.008579999999999999          
         C45       1.0000    0.23430   0.75594   0.74290   Biso      1.000     C          0.089801  
         C46       1.0000    0.36520   0.38960   0.39280   Biso      1.000     C          0.010020000000000001          
         C47       1.0000    0.32150   0.21271   0.83000   Biso      1.000     C          -0.143674           
         C48       1.0000    0.97220   0.67370   0.03030   Biso      1.000     C          0.596545  
         C49       1.0000    0.41480   0.22001   0.93790   Biso      1.000     C          0.027542  
         C50       1.0000    0.17850   0.71271   0.67000   Biso      1.000     C          -0.143673           
         C51       1.0000    0.89250   0.81110   0.89080   Biso      1.000     C          0.07506   
         C52       1.0000    0.26570   0.25594   0.75710   Biso      1.000     C          0.089799  
         C53       1.0000    0.08520   0.72001   0.56210   Biso      1.000     C          0.027542  
         C54       1.0000    0.45270   0.27076   0.96600   Biso      1.000     C          -0.164233           
         C55       1.0000    0.95270   0.77076   0.96600   Biso      1.000     C          -0.16422  
         C56       1.0000    0.91480   0.72001   0.93790   Biso      1.000     C          0.027531  
         C57       1.0000    0.10750   0.81110   0.60920   Biso      1.000     C          0.075063  
         C58       1.0000    0.39250   0.31110   0.89080   Biso      1.000     C          0.075055  
         C59       1.0000    0.02780   0.67370   0.46970   Biso      1.000     C          0.596542  
         C60       1.0000    0.82150   0.71271   0.83000   Biso      1.000     C          -0.14366700000000002          
         C61       1.0000    0.76570   0.75594   0.75710   Biso      1.000     C          0.089797  
         C62       1.0000    0.86470   0.95740   0.91220   Biso      1.000     C          0.008564  
         C63       1.0000    0.04730   0.77076   0.53400   Biso      1.000     C          -0.164214           
         C64       1.0000    0.36470   0.45740   0.91220   Biso      1.000     C          0.008489  
         H1        1.0000    0.51770   0.27720   0.03450   Biso      1.000     H          0.124642  
         H2        1.0000    0.70450   0.82100   0.19450   Biso      1.000     H          0.134579  
         H3        1.0000    0.48230   0.72280   0.96550   Biso      1.000     H          0.124645  
         H4        1.0000    0.29550   0.17900   0.80550   Biso      1.000     H          0.134568  
         H5        1.0000    0.20280   0.25030   0.68250   Biso      1.000     H          0.091671  
         H6        1.0000    0.79720   0.74970   0.31750   Biso      1.000     H          0.091673  
         H7        1.0000    0.58160   0.65500   0.08880   Biso      1.000     H          0.08037000000000001           
         H8        1.0000    0.79550   0.32100   0.30550   Biso      1.000     H          0.13456600000000002           
         H9        1.0000    0.01770   0.22280   0.53450   Biso      1.000     H          0.124644  
         H10       1.0000    0.41840   0.34500   0.91120   Biso      1.000     H          0.08036   
         H11       1.0000    0.20280   0.74970   0.18250   Biso      1.000     H          0.091675  
         H12       1.0000    0.29550   0.82100   0.30550   Biso      1.000     H          0.134581  
         H13       1.0000    0.91840   0.84500   0.91120   Biso      1.000     H          0.080376  
         H14       1.0000    0.51770   0.72280   0.53450   Biso      1.000     H          0.124646  
         H15       1.0000    0.01770   0.77720   0.03450   Biso      1.000     H          0.124645  
         H16       1.0000    0.41840   0.65500   0.41120   Biso      1.000     H          0.080373  
         H17       1.0000    0.79550   0.67900   0.80550   Biso      1.000     H          0.134573  
         H18       1.0000    0.70280   0.75030   0.68250   Biso      1.000     H          0.091672  
         H19       1.0000    0.70280   0.24970   0.18250   Biso      1.000     H          0.091671  
         H20       1.0000    0.91840   0.15500   0.41120   Biso      1.000     H          0.080363  
         H21       1.0000    0.29720   0.24970   0.31750   Biso      1.000     H          0.09167   
         H22       1.0000    0.70450   0.17900   0.69450   Biso      1.000     H          0.134571  
         H23       1.0000    0.08160   0.84500   0.58880   Biso      1.000     H          0.080377  
         H24       1.0000    0.79720   0.25030   0.81750   Biso      1.000     H          0.091673  
         H25       1.0000    0.29720   0.75030   0.81750   Biso      1.000     H          0.091675  
         H26       1.0000    0.20450   0.32100   0.19450   Biso      1.000     H          0.13456700000000002           
         H27       1.0000    0.08160   0.15500   0.08880   Biso      1.000     H          0.080362  
         H28       1.0000    0.58160   0.34500   0.58880   Biso      1.000     H          0.080362  
         H29       1.0000    0.20450   0.67900   0.69450   Biso      1.000     H          0.134578  
         H30       1.0000    0.98230   0.22280   0.96550   Biso      1.000     H          0.124642  
         H31       1.0000    0.48230   0.27720   0.46550   Biso      1.000     H          0.124644  
         H32       1.0000    0.98230   0.77720   0.46550   Biso      1.000     H          0.12464700000000001           
         Mn1       1.0000    0.68809   0.12463   0.20307   Biso      1.000     Mn          0.965918  
         Mn2       1.0000    0.68809   0.87537   0.70307   Biso      1.000     Mn          0.966047  
         Mn3       1.0000    0.81191   0.37537   0.79693   Biso      1.000     Mn          0.9660059999999999  
         Mn4       1.0000    0.18809   0.37537   0.70307   Biso      1.000     Mn          0.9658899999999999  
         Mn5       1.0000    0.18809   0.62463   0.20307   Biso      1.000     Mn          0.966123  
         Mn6       1.0000    0.81191   0.62463   0.29693   Biso      1.000     Mn          0.9661559999999999  
         Mn7       1.0000    0.31191   0.87537   0.79693   Biso      1.000     Mn          0.9661129999999999  
         Mn8       1.0000    0.31191   0.12463   0.29693   Biso      1.000     Mn          0.9660049999999999  
         N1        1.0000    0.29280   0.61604   0.97840   Biso      1.000     N          -0.356514           
         N2        1.0000    0.29260   0.56868   0.35970   Biso      1.000     N          -0.35290900000000003          
         N3        1.0000    0.29790   0.69484   0.28880   Biso      1.000     N          -0.235517           
         N4        1.0000    0.70720   0.38396   0.02160   Biso      1.000     N          -0.356486           
         N5        1.0000    0.70740   0.43132   0.64030   Biso      1.000     N          -0.352858           
         N6        1.0000    0.70210   0.30516   0.71120   Biso      1.000     N          -0.235513           
         N7        1.0000    0.20210   0.80516   0.71120   Biso      1.000     N          -0.23550900000000002          
         N8        1.0000    0.79280   0.88396   0.47840   Biso      1.000     N          -0.356508           
         N9        1.0000    0.20740   0.93132   0.64030   Biso      1.000     N          -0.35291  
         N10       1.0000    0.79260   0.93132   0.85970   Biso      1.000     N          -0.352903           
         N11       1.0000    0.79260   0.06868   0.35970   Biso      1.000     N          -0.35285  
         N12       1.0000    0.20720   0.88396   0.02160   Biso      1.000     N          -0.356516           
         N13       1.0000    0.20720   0.11604   0.52160   Biso      1.000     N          -0.356488           
         N14       1.0000    0.70740   0.56868   0.14030   Biso      1.000     N          -0.352916           
         N15       1.0000    0.70210   0.69484   0.21120   Biso      1.000     N          -0.23552399999999998          
         N16       1.0000    0.79790   0.19484   0.28880   Biso      1.000     N          -0.235502           
         N17       1.0000    0.29260   0.43132   0.85970   Biso      1.000     N          -0.352842           
         N18       1.0000    0.29790   0.30516   0.78880   Biso      1.000     N          -0.2355   
         N19       1.0000    0.70720   0.61604   0.52160   Biso      1.000     N          -0.356521           
         N20       1.0000    0.29280   0.38396   0.47840   Biso      1.000     N          -0.356469           
         N21       1.0000    0.20210   0.19484   0.21120   Biso      1.000     N          -0.235512           
         N22       1.0000    0.79790   0.80516   0.78880   Biso      1.000     N          -0.23550300000000002          
         N23       1.0000    0.79280   0.11604   0.97840   Biso      1.000     N          -0.356476           
         N24       1.0000    0.20740   0.06868   0.14030   Biso      1.000     N          -0.35286300000000004          
         O1        1.0000    0.08690   0.63492   0.43390   Biso      1.000     O          -0.570218           
         O2        1.0000    0.41310   0.86508   0.56610   Biso      1.000     O          -0.570217           
         O3        1.0000    0.92620   0.67752   0.43480   Biso      1.000     O          -0.544111           
         O4        1.0000    0.57380   0.82248   0.56520   Biso      1.000     O          -0.5441060000000001           
         O5        1.0000    0.92620   0.32248   0.93480   Biso      1.000     O          -0.5441159999999999           
         O6        1.0000    0.07380   0.32248   0.56520   Biso      1.000     O          -0.544097           
         O7        1.0000    0.42620   0.82248   0.93480   Biso      1.000     O          -0.544118           
         O8        1.0000    0.57380   0.17752   0.06520   Biso      1.000     O          -0.5441010000000001           
         O9        1.0000    0.41310   0.13492   0.06610   Biso      1.000     O          -0.570243           
         O10       1.0000    0.91310   0.63492   0.06610   Biso      1.000     O          -0.570224           
         O11       1.0000    0.58690   0.13492   0.43390   Biso      1.000     O          -0.570235           
         O12       1.0000    0.07380   0.67752   0.06520   Biso      1.000     O          -0.544108           
         O13       1.0000    0.42620   0.17752   0.43480   Biso      1.000     O          -0.544113           
         O14       1.0000    0.91310   0.36508   0.56610   Biso      1.000     O          -0.570249           
         O15       1.0000    0.58690   0.86508   0.93390   Biso      1.000     O          -0.570213           
         O16       1.0000    0.08690   0.36508   0.93390   Biso      1.000     O          -0.570238 