
##########################################################################
#               Crystallographic Information Format file
#               Produced by PyCifRW module
#
#  This is a CIF file.  CIF has been adopted by the International
#  Union of Crystallography as the standard for data archiving and
#  transmission.
#
#  For information on this file format, follow the CIF links at
#  http://www.iucr.org
##########################################################################

data_image0

_cell_length_a                          8.438
_cell_length_b                          19.512
_cell_length_c                          9.742
_cell_angle_alpha                       90
_cell_angle_beta                        101.824
_cell_angle_gamma                       90
_symmetry_space_group_name_H-M          'P 1'
_symmetry_int_tables_number             1
loop_
  _symmetry_equiv_pos_as_xyz
         'x, y, z' 
loop_
  _atom_site_label
  _atom_site_occupancy
  _atom_site_fract_x
  _atom_site_fract_y
  _atom_site_fract_z
  _atom_site_thermal_displace_type
  _atom_site_B_iso_or_equiv
  _atom_site_type_symbol
  _atom_site_charge
         F1        1.0000    0.47078   0.92849   0.67898   Biso      1.000     F          -0.10027  
         F2        1.0000    0.52922   0.42849   0.32102   Biso      1.000     F          -0.10027  
         F3        1.0000    0.38325   0.05700   0.74727   Biso      1.000     F          -0.104376           
         F4        1.0000    0.61675   0.55700   0.25273   Biso      1.000     F          -0.104376           
         F5        1.0000    0.67006   0.02431   0.21740   Biso      1.000     F          -0.100322           
         F6        1.0000    0.32994   0.52431   0.78260   Biso      1.000     F          -0.100322           
         F7        1.0000    0.76510   0.89787   0.14915   Biso      1.000     F          -0.101947           
         F8        1.0000    0.23490   0.39787   0.85085   Biso      1.000     F          -0.101947           
         F9        1.0000    0.05393   0.82942   0.23754   Biso      1.000     F          -0.1144   
         F10       1.0000    0.94607   0.32942   0.76246   Biso      1.000     F          -0.1144   
         F11       1.0000    0.21153   0.83177   0.50417   Biso      1.000     F          -0.108082           
         F12       1.0000    0.78847   0.33177   0.49583   Biso      1.000     F          -0.108082           
         F13       1.0000    0.36943   0.59768   0.46833   Biso      1.000     F          -0.105805           
         F14       1.0000    0.63057   0.09768   0.53167   Biso      1.000     F          -0.105805           
         F15       1.0000    0.21347   0.59515   0.19963   Biso      1.000     F          -0.112772           
         F16       1.0000    0.78653   0.09515   0.80037   Biso      1.000     F          -0.112772           
         O1        1.0000    0.57545   0.78578   0.93080   Biso      1.000     O          -0.542607           
         O2        1.0000    0.42455   0.28578   0.06920   Biso      1.000     O          -0.542607           
         O3        1.0000    0.76216   0.81524   0.81913   Biso      1.000     O          -0.413331           
         O4        1.0000    0.23784   0.31524   0.18087   Biso      1.000     O          -0.413331           
         O5        1.0000    0.36692   0.12504   0.09436   Biso      1.000     O          -0.454951           
         O6        1.0000    0.63308   0.62504   0.90564   Biso      1.000     O          -0.454951           
         O7        1.0000    0.56207   0.15990   0.97698   Biso      1.000     O          -0.48429  
         O8        1.0000    0.43793   0.65990   0.02302   Biso      1.000     O          -0.48429  
         O9        1.0000    0.90204   0.70647   0.01220   Biso      1.000     O          -0.482794           
         O10       1.0000    0.09796   0.20647   0.98780   Biso      1.000     O          -0.482794           
         O11       1.0000    0.14701   0.72798   0.95994   Biso      1.000     O          -0.499967           
         O12       1.0000    0.85299   0.22798   0.04006   Biso      1.000     O          -0.499967           
         O13       1.0000    0.30474   0.73058   0.73984   Biso      1.000     O          -0.468365           
         O14       1.0000    0.69526   0.23058   0.26016   Biso      1.000     O          -0.468365           
         O15       1.0000    0.54697   0.70974   0.67474   Biso      1.000     O          -0.476508           
         O16       1.0000    0.45303   0.20974   0.32526   Biso      1.000     O          -0.476508           
         C1        1.0000    0.52140   0.95177   0.81208   Biso      1.000     C          0.168156  
         C2        1.0000    0.47860   0.45177   0.18792   Biso      1.000     C          0.168156  
         C3        1.0000    0.47245   0.01658   0.84813   Biso      1.000     C          0.163596  
         C4        1.0000    0.52755   0.51658   0.15187   Biso      1.000     C          0.163596  
         C5        1.0000    0.51549   0.04164   0.98554   Biso      1.000     C          -0.186903           
         C6        1.0000    0.48451   0.54164   0.01446   Biso      1.000     C          -0.186903           
         C7        1.0000    0.61542   0.00015   0.08534   Biso      1.000     C          0.163818  
         C8        1.0000    0.38458   0.50015   0.91466   Biso      1.000     C          0.163818  
         C9        1.0000    0.66618   0.93568   0.04971   Biso      1.000     C          0.165855  
         C10       1.0000    0.33382   0.43568   0.95029   Biso      1.000     C          0.165855  
         C11       1.0000    0.61800   0.90935   0.91286   Biso      1.000     C          -0.216288           
         C12       1.0000    0.38200   0.40935   0.08714   Biso      1.000     C          -0.216288           
         C13       1.0000    0.65448   0.83631   0.88160   Biso      1.000     C          0.592065  
         C14       1.0000    0.34552   0.33631   0.11840   Biso      1.000     C          0.592065  
         C15       1.0000    0.47418   0.11369   0.02146   Biso      1.000     C          0.596991  
         C16       1.0000    0.52582   0.61369   0.97854   Biso      1.000     C          0.596991  
         C17       1.0000    0.13076   0.77079   0.29133   Biso      1.000     C          0.152913  
         C18       1.0000    0.86924   0.27079   0.70867   Biso      1.000     C          0.152913  
         C19       1.0000    0.21328   0.77216   0.43211   Biso      1.000     C          0.167869  
         C20       1.0000    0.78672   0.27216   0.56789   Biso      1.000     C          0.167869  
         C21       1.0000    0.30073   0.71532   0.49675   Biso      1.000     C          -0.196699           
         C22       1.0000    0.69927   0.21532   0.50325   Biso      1.000     C          -0.196699           
         C23       1.0000    0.29517   0.65630   0.41256   Biso      1.000     C          0.164486  
         C24       1.0000    0.70483   0.15630   0.58744   Biso      1.000     C          0.164486  
         C25       1.0000    0.21166   0.65502   0.27185   Biso      1.000     C          0.163333  
         C26       1.0000    0.78834   0.15502   0.72815   Biso      1.000     C          0.163333  
         C27       1.0000    0.13105   0.71295   0.20509   Biso      1.000     C          -0.215088           
         C28       1.0000    0.86895   0.21295   0.79491   Biso      1.000     C          -0.215088           
         C29       1.0000    0.05432   0.71562   0.04737   Biso      1.000     C          0.633922  
         C30       1.0000    0.94568   0.21562   0.95263   Biso      1.000     C          0.633922  
         C31       1.0000    0.39274   0.71854   0.64758   Biso      1.000     C          0.601312  
         C32       1.0000    0.60726   0.21854   0.35242   Biso      1.000     C          0.601312  
         Mn1       1.0000    0.69853   0.71465   0.85645   Biso      1.000     Mn          0.867648  
         Mn2       1.0000    0.30147   0.21465   0.14355   Biso      1.000     Mn          0.867648  
         Mn3       1.0000    0.36773   0.74209   0.93489   Biso      1.000     Mn          0.883802  
         Mn4       1.0000    0.63227   0.24209   0.06511   Biso      1.000     Mn          0.883802 