
##########################################################################
#               Crystallographic Information Format file
#               Produced by PyCifRW module
#
#  This is a CIF file.  CIF has been adopted by the International
#  Union of Crystallography as the standard for data archiving and
#  transmission.
#
#  For information on this file format, follow the CIF links at
#  http://www.iucr.org
##########################################################################

data_image0

_cell_length_a                          8.2336
_cell_length_b                          9.697
_cell_length_c                          19.402
_cell_angle_alpha                       90
_cell_angle_beta                        90
_cell_angle_gamma                       101.727
_symmetry_space_group_name_H-M          'P 1'
_symmetry_int_tables_number             1
loop_
  _symmetry_equiv_pos_as_xyz
         'x, y, z' 
loop_
  _atom_site_label
  _atom_site_occupancy
  _atom_site_fract_x
  _atom_site_fract_y
  _atom_site_fract_z
  _atom_site_thermal_displace_type
  _atom_site_B_iso_or_equiv
  _atom_site_type_symbol
  _atom_site_charge
         C1        1.0000    0.14060   0.28800   0.72600   Biso      1.000     C          0.149263  
         C2        1.0000    0.71350   0.58880   0.34290   Biso      1.000     C          0.164178  
         C3        1.0000    0.79440   0.72960   0.34280   Biso      1.000     C          0.163017  
         C4        1.0000    0.86770   0.79340   0.28460   Biso      1.000     C          -0.24788200000000002          
         C5        1.0000    0.95880   0.94730   0.28460   Biso      1.000     C          0.6684399999999999  
         C6        1.0000    0.61270   0.35520   0.28280   Biso      1.000     C          0.666868  
         C7        1.0000    0.07090   0.31000   0.38540   Biso      1.000     C          0.176303  
         C8        1.0000    0.17000   0.37600   0.42730   Biso      1.000     C          -0.519547           
         C9        1.0000    0.53110   0.80990   0.54560   Biso      1.000     C          0.161526  
         C10       1.0000    0.48460   0.84640   0.48160   Biso      1.000     C          0.16026400000000002           
         C11       1.0000    0.52870   0.98410   0.45740   Biso      1.000     C          -0.21606  
         C12       1.0000    0.62140   0.08160   0.50120   Biso      1.000     C          0.15934700000000002           
         C13       1.0000    0.66930   0.04400   0.56540   Biso      1.000     C          0.15373399999999998           
         C14       1.0000    0.62380   0.90790   0.58950   Biso      1.000     C          -0.244252           
         C15       1.0000    0.67520   0.86700   0.66030   Biso      1.000     C          0.6477430000000001  
         C16       1.0000    0.47940   0.02560   0.38650   Biso      1.000     C          0.689714  
         C17       1.0000    0.92910   0.69000   0.88540   Biso      1.000     C          0.176302  
         C18       1.0000    0.21710   0.42760   0.72580   Biso      1.000     C          0.173024  
         C19       1.0000    0.29270   0.49220   0.78430   Biso      1.000     C          -0.21023499999999998          
         C20       1.0000    0.28650   0.41120   0.84290   Biso      1.000     C          0.16418   
         C21       1.0000    0.20560   0.27040   0.84280   Biso      1.000     C          0.163017  
         C22       1.0000    0.13230   0.20660   0.78460   Biso      1.000     C          -0.24787800000000001          
         C23       1.0000    0.70730   0.50780   0.28430   Biso      1.000     C          -0.210236           
         C24       1.0000    0.78290   0.57240   0.22580   Biso      1.000     C          0.17302599999999999           
         C25       1.0000    0.85940   0.71200   0.22600   Biso      1.000     C          0.149268  
         C26       1.0000    0.52060   0.97440   0.88650   Biso      1.000     C          0.689714  
         C27       1.0000    0.04120   0.05270   0.78460   Biso      1.000     C          0.668439  
         C28       1.0000    0.83000   0.62400   0.92730   Biso      1.000     C          -0.519548           
         C29       1.0000    0.46890   0.19010   0.04560   Biso      1.000     C          0.161526  
         C30       1.0000    0.51540   0.15360   0.98160   Biso      1.000     C          0.16026400000000002           
         C31       1.0000    0.38730   0.64480   0.78280   Biso      1.000     C          0.666868  
         C32       1.0000    0.37860   0.91840   0.00120   Biso      1.000     C          0.15934500000000001           
         C33       1.0000    0.33070   0.95600   0.06540   Biso      1.000     C          0.15373399999999998           
         C34       1.0000    0.37620   0.09210   0.08950   Biso      1.000     C          -0.244252           
         C35       1.0000    0.32480   0.13300   0.16030   Biso      1.000     C          0.6477430000000001  
         C36       1.0000    0.47130   0.01590   0.95740   Biso      1.000     C          -0.21605700000000003          
         F1        1.0000    0.22050   0.50090   0.66716   Biso      1.000     F          -0.104572           
         F2        1.0000    0.07370   0.22970   0.66662   Biso      1.000     F          -0.11916800000000001          
         F3        1.0000    0.76360   0.14210   0.60510   Biso      1.000     F          -0.10513800000000001          
         F4        1.0000    0.66990   0.21590   0.48046   Biso      1.000     F          -0.106197           
         F5        1.0000    0.39430   0.74820   0.44062   Biso      1.000     F          -0.105175           
         F6        1.0000    0.48130   0.67620   0.56600   Biso      1.000     F          -0.099977           
         F7        1.0000    0.64620   0.53320   0.40196   Biso      1.000     F          -0.100497           
         F8        1.0000    0.77950   0.49910   0.16716   Biso      1.000     F          -0.104572           
         F9        1.0000    0.92630   0.77030   0.16662   Biso      1.000     F          -0.11916800000000001          
         F10       1.0000    0.33010   0.78410   0.98046   Biso      1.000     F          -0.106197           
         F11       1.0000    0.60570   0.25180   0.94062   Biso      1.000     F          -0.105175           
         F12       1.0000    0.51870   0.32380   0.06600   Biso      1.000     F          -0.099977           
         F13       1.0000    0.80030   0.80370   0.40179   Biso      1.000     F          -0.108642           
         F14       1.0000    0.23640   0.85790   0.10510   Biso      1.000     F          -0.10513900000000001          
         F15       1.0000    0.19970   0.19630   0.90179   Biso      1.000     F          -0.108642           
         F16       1.0000    0.35380   0.46680   0.90196   Biso      1.000     F          -0.100497           
         H1        1.0000    0.88530   0.61830   0.97050   Biso      1.000     H          0.18879300000000002           
         H2        1.0000    0.14820   0.19770   0.32150   Biso      1.000     H          0.295464  
         H3        1.0000    0.98680   0.36630   0.37930   Biso      1.000     H          0.07559199999999999           
         H4        1.0000    0.01690   0.22570   0.40940   Biso      1.000     H          0.048086000000000004          
         H5        1.0000    0.21190   0.46950   0.41020   Biso      1.000     H          0.152475  
         H6        1.0000    0.26030   0.32860   0.43380   Biso      1.000     H          0.155222  
         H7        1.0000    0.11470   0.38170   0.47050   Biso      1.000     H          0.18879200000000002           
         H8        1.0000    0.85180   0.80230   0.82150   Biso      1.000     H          0.295464  
         H9        1.0000    0.01320   0.63370   0.87930   Biso      1.000     H          0.07559199999999999           
         H10       1.0000    0.98310   0.77430   0.90940   Biso      1.000     H          0.048086000000000004          
         H11       1.0000    0.78810   0.53050   0.91020   Biso      1.000     H          0.152475  
         H12       1.0000    0.73970   0.67140   0.93380   Biso      1.000     H          0.155223  
         O1        1.0000    0.89720   0.73470   0.81880   Biso      1.000     O          -0.475941           
         O2        1.0000    0.30410   0.73620   0.77020   Biso      1.000     O          -0.550624           
         O3        1.0000    0.53880   0.65890   0.79330   Biso      1.000     O          -0.533308           
         O4        1.0000    0.89090   0.03280   0.79500   Biso      1.000     O          -0.49618599999999996          
         O5        1.0000    0.39350   0.08650   0.21158   Biso      1.000     O          -0.608615           
         O6        1.0000    0.21970   0.20380   0.16610   Biso      1.000     O          -0.45556499999999994          
         O7        1.0000    0.62700   0.90050   0.88553   Biso      1.000     O          -0.534224           
         O8        1.0000    0.45000   0.01690   0.83701   Biso      1.000     O          -0.5738979999999999           
         O9        1.0000    0.12340   0.95950   0.77420   Biso      1.000     O          -0.525105           
         O10       1.0000    0.87660   0.04050   0.27420   Biso      1.000     O          -0.525105           
         O11       1.0000    0.10910   0.96720   0.29500   Biso      1.000     O          -0.49618599999999996          
         O12       1.0000    0.46120   0.34110   0.29330   Biso      1.000     O          -0.533309           
         O13       1.0000    0.10280   0.26530   0.31880   Biso      1.000     O          -0.47594200000000003          
         O14       1.0000    0.60650   0.91350   0.71158   Biso      1.000     O          -0.608615           
         O15       1.0000    0.78030   0.79620   0.66610   Biso      1.000     O          -0.45556499999999994          
         O16       1.0000    0.37300   0.09950   0.38553   Biso      1.000     O          -0.534225           
         O17       1.0000    0.55000   0.98310   0.33701   Biso      1.000     O          -0.5738979999999999           
         O18       1.0000    0.69590   0.26380   0.27020   Biso      1.000     O          -0.550624           
         Zn1       1.0000    0.36185   0.94687   0.73975   Biso      1.000     Zn          1.049775  
         Zn2       1.0000    0.71509   0.84297   0.79588   Biso      1.000     Zn          0.9419790000000001  
         Zn3       1.0000    0.63815   0.05313   0.23975   Biso      1.000     Zn          1.049775  
         Zn4       1.0000    0.28491   0.15703   0.29588   Biso      1.000     Zn          0.9419799999999999 