
##########################################################################
#               Crystallographic Information Format file
#               Produced by PyCifRW module
#
#  This is a CIF file.  CIF has been adopted by the International
#  Union of Crystallography as the standard for data archiving and
#  transmission.
#
#  For information on this file format, follow the CIF links at
#  http://www.iucr.org
##########################################################################

data_image0

_cell_length_a                          8.246
_cell_length_b                          19.408
_cell_length_c                          9.705
_cell_angle_alpha                       90
_cell_angle_beta                        101.79
_cell_angle_gamma                       90
_symmetry_space_group_name_H-M          'P 1'
_symmetry_int_tables_number             1
loop_
  _symmetry_equiv_pos_as_xyz
         'x, y, z' 
loop_
  _atom_site_label
  _atom_site_occupancy
  _atom_site_fract_x
  _atom_site_fract_y
  _atom_site_fract_z
  _atom_site_thermal_displace_type
  _atom_site_B_iso_or_equiv
  _atom_site_type_symbol
  _atom_site_charge
         Zn1       1.0000    0.70771   0.52376   0.85260   Biso      1.000     Zn          0.982632  
         Zn2       1.0000    0.29229   0.02376   0.14740   Biso      1.000     Zn          0.982632  
         Zn3       1.0000    0.36316   0.55583   0.92766   Biso      1.000     Zn          1.030343  
         Zn4       1.0000    0.63684   0.05583   0.07234   Biso      1.000     Zn          1.030343  
         F1        1.0000    0.60909   0.37515   0.25403   Biso      1.000     F          -0.101023           
         F2        1.0000    0.39091   0.87515   0.74597   Biso      1.000     F          -0.101023           
         F3        1.0000    0.52187   0.24825   0.33085   Biso      1.000     F          -0.10668  
         F4        1.0000    0.47813   0.74825   0.66915   Biso      1.000     F          -0.10668  
         F5        1.0000    0.23756   0.20619   0.85679   Biso      1.000     F          -0.106945           
         F6        1.0000    0.76244   0.70619   0.14321   Biso      1.000     F          -0.106945           
         F7        1.0000    0.32897   0.33414   0.78120   Biso      1.000     F          -0.105131           
         F8        1.0000    0.67103   0.83414   0.21880   Biso      1.000     F          -0.105131           
         F9        1.0000    0.35821   0.41012   0.46693   Biso      1.000     F          -0.101056           
         F10       1.0000    0.64179   0.91012   0.53307   Biso      1.000     F          -0.101056           
         F11       1.0000    0.19431   0.40946   0.19254   Biso      1.000     F          -0.108758           
         F12       1.0000    0.80569   0.90946   0.80746   Biso      1.000     F          -0.108758           
         F13       1.0000    0.07489   0.64873   0.22816   Biso      1.000     F          -0.106773           
         F14       1.0000    0.92511   0.14873   0.77184   Biso      1.000     F          -0.106773           
         F15       1.0000    0.22283   0.64720   0.50216   Biso      1.000     F          -0.099969           
         F16       1.0000    0.77717   0.14720   0.49784   Biso      1.000     F          -0.099969           
         O1        1.0000    0.45605   0.47471   0.03378   Biso      1.000     O          -0.569213           
         O2        1.0000    0.54395   0.97471   0.96622   Biso      1.000     O          -0.569213           
         O3        1.0000    0.62785   0.42894   0.89889   Biso      1.000     O          -0.504603           
         O4        1.0000    0.37215   0.92894   0.10111   Biso      1.000     O          -0.504603           
         O5        1.0000    0.22740   0.13820   0.19508   Biso      1.000     O          -0.457976           
         O6        1.0000    0.77260   0.63820   0.80492   Biso      1.000     O          -0.457976           
         O7        1.0000    0.41737   0.10538   0.07180   Biso      1.000     O          -0.636861           
         O8        1.0000    0.58263   0.60538   0.92820   Biso      1.000     O          -0.636861           
         O9        1.0000    0.54998   0.52205   0.65967   Biso      1.000     O          -0.518145           
         O10       1.0000    0.45002   0.02205   0.34033   Biso      1.000     O          -0.518145           
         O11       1.0000    0.30145   0.54666   0.72449   Biso      1.000     O          -0.549213           
         O12       1.0000    0.69855   0.04666   0.27551   Biso      1.000     O          -0.549213           
         O13       1.0000    0.13671   0.55407   0.95854   Biso      1.000     O          -0.544986           
         O14       1.0000    0.86329   0.05407   0.04146   Biso      1.000     O          -0.544986           
         O15       1.0000    0.90015   0.51652   0.01623   Biso      1.000     O          -0.515887           
         O16       1.0000    0.09985   0.01652   0.98377   Biso      1.000     O          -0.515887           
         C1        1.0000    0.52483   0.42537   0.97871   Biso      1.000     C          0.650549  
         C2        1.0000    0.47517   0.92537   0.02129   Biso      1.000     C          0.650549  
         C3        1.0000    0.47389   0.35546   0.01629   Biso      1.000     C          -0.205669           
         C4        1.0000    0.52611   0.85546   0.98371   Biso      1.000     C          -0.205669           
         C5        1.0000    0.51750   0.33356   0.15562   Biso      1.000     C          0.164335  
         C6        1.0000    0.48250   0.83356   0.84438   Biso      1.000     C          0.164335  
         C7        1.0000    0.46947   0.26874   0.19482   Biso      1.000     C          0.165749  
         C8        1.0000    0.53053   0.76874   0.80518   Biso      1.000     C          0.165749  
         C9        1.0000    0.37571   0.22505   0.09519   Biso      1.000     C          -0.212338           
         C10       1.0000    0.62429   0.72505   0.90481   Biso      1.000     C          -0.212338           
         C11       1.0000    0.32945   0.24802   0.95573   Biso      1.000     C          0.162138  
         C12       1.0000    0.67055   0.74802   0.04427   Biso      1.000     C          0.162138  
         C13       1.0000    0.37770   0.31271   0.91645   Biso      1.000     C          0.166139  
         C14       1.0000    0.62230   0.81271   0.08355   Biso      1.000     C          0.166139  
         C15       1.0000    0.33504   0.15336   0.12758   Biso      1.000     C          0.64507   
         C16       1.0000    0.66496   0.65336   0.87242   Biso      1.000     C          0.64507   
         C17       1.0000    0.39510   0.53211   0.63757   Biso      1.000     C          0.65238   
         C18       1.0000    0.60490   0.03211   0.36243   Biso      1.000     C          0.65238   
         C19       1.0000    0.29949   0.52913   0.48885   Biso      1.000     C          -0.199399           
         C20       1.0000    0.70051   0.02913   0.51115   Biso      1.000     C          -0.199399           
         C21       1.0000    0.28706   0.46920   0.40848   Biso      1.000     C          0.172749  
         C22       1.0000    0.71294   0.96920   0.59152   Biso      1.000     C          0.172749  
         C23       1.0000    0.20269   0.46931   0.26699   Biso      1.000     C          0.171441  
         C24       1.0000    0.79731   0.96931   0.73301   Biso      1.000     C          0.171441  
         C25       1.0000    0.13215   0.52953   0.20169   Biso      1.000     C          -0.226977           
         C26       1.0000    0.86785   0.02953   0.79831   Biso      1.000     C          -0.226977           
         C27       1.0000    0.13922   0.58839   0.28548   Biso      1.000     C          0.161118  
         C28       1.0000    0.86078   0.08839   0.71452   Biso      1.000     C          0.161118  
         C29       1.0000    0.21782   0.58791   0.42760   Biso      1.000     C          0.174228  
         C30       1.0000    0.78218   0.08791   0.57240   Biso      1.000     C          0.174228  
         C31       1.0000    0.05220   0.53328   0.04686   Biso      1.000     C          0.678728  
         C32       1.0000    0.94780   0.03328   0.95314   Biso      1.000     C          0.678728 