
##########################################################################
#               Crystallographic Information Format file
#               Produced by PyCifRW module
#
#  This is a CIF file.  CIF has been adopted by the International
#  Union of Crystallography as the standard for data archiving and
#  transmission.
#
#  For information on this file format, follow the CIF links at
#  http://www.iucr.org
##########################################################################

data_image0

_cell_length_a                          18.8226
_cell_length_b                          18.8226
_cell_length_c                          18.8226
_cell_angle_alpha                       62.8981
_cell_angle_beta                        62.8981
_cell_angle_gamma                       62.8981
_symmetry_space_group_name_H-M          'P 1'
_symmetry_int_tables_number             1
loop_
  _symmetry_equiv_pos_as_xyz
         'x, y, z' 
loop_
  _atom_site_label
  _atom_site_occupancy
  _atom_site_fract_x
  _atom_site_fract_y
  _atom_site_fract_z
  _atom_site_thermal_displace_type
  _atom_site_B_iso_or_equiv
  _atom_site_type_symbol
  _atom_site_charge
         C1        1.0000    0.63504   0.32004   0.22384   Biso      1.000     C          -0.20724  
         C2        1.0000    0.40220   0.85320   0.21830   Biso      1.000     C          -0.158532           
         C3        1.0000    0.40670   0.77070   0.25940   Biso      1.000     C          0.12497   
         C4        1.0000    0.39530   0.72040   0.22570   Biso      1.000     C          -0.073134           
         C5        1.0000    0.22384   0.63504   0.32004   Biso      1.000     C          -0.20724  
         C6        1.0000    0.29541   0.65551   0.26211   Biso      1.000     C          0.269362  
         C7        1.0000    0.34179   0.62339   0.19439   Biso      1.000     C          -0.24845799999999998          
         C8        1.0000    0.31564   0.57144   0.18684   Biso      1.000     C          0.005884  
         C9        1.0000    0.24302   0.55242   0.24272   Biso      1.000     C          -0.15018299999999998          
         C10       1.0000    0.19652   0.58542   0.31022   Biso      1.000     C          -0.011081           
         C11       1.0000    0.40940   0.89810   0.25440   Biso      1.000     C          -0.093928           
         C12       1.0000    0.11956   0.56096   0.37516   Biso      1.000     C          0.691924  
         C13       1.0000    0.65551   0.26211   0.29541   Biso      1.000     C          0.269363  
         C14       1.0000    0.72040   0.22570   0.39530   Biso      1.000     C          -0.073134           
         C15       1.0000    0.77070   0.25940   0.40670   Biso      1.000     C          0.12496199999999999           
         C16       1.0000    0.85320   0.21830   0.40220   Biso      1.000     C          -0.158524           
         C17       1.0000    0.89810   0.25440   0.40940   Biso      1.000     C          -0.093929           
         C18       1.0000    0.86272   0.32862   0.42282   Biso      1.000     C          -0.004693999999999999         
         C19       1.0000    0.91161   0.36881   0.42821   Biso      1.000     C          0.594332  
         C20       1.0000    0.77900   0.36910   0.43030   Biso      1.000     C          -0.10788299999999999          
         C21       1.0000    0.73310   0.33230   0.42480   Biso      1.000     C          -0.152396           
         C22       1.0000    0.62339   0.19439   0.34179   Biso      1.000     C          -0.24845799999999998          
         C23       1.0000    0.53501   0.11741   0.36351   Biso      1.000     C          0.673557  
         C24       1.0000    0.42282   0.86272   0.32862   Biso      1.000     C          -0.004693999999999999         
         C25       1.0000    0.43030   0.77900   0.36910   Biso      1.000     C          -0.10788299999999999          
         C26       1.0000    0.58542   0.31022   0.19652   Biso      1.000     C          -0.011081           
         C27       1.0000    0.56096   0.37516   0.11956   Biso      1.000     C          0.691925  
         C28       1.0000    0.11741   0.36351   0.53501   Biso      1.000     C          0.673558  
         C29       1.0000    0.33230   0.42480   0.73310   Biso      1.000     C          -0.15241400000000002          
         C30       1.0000    0.36910   0.43030   0.77900   Biso      1.000     C          -0.10788099999999999          
         C31       1.0000    0.36881   0.42821   0.91161   Biso      1.000     C          0.594334  
         C32       1.0000    0.32862   0.42282   0.86272   Biso      1.000     C          -0.004718           
         C33       1.0000    0.25440   0.40940   0.89810   Biso      1.000     C          -0.093899           
         C34       1.0000    0.21830   0.40220   0.85320   Biso      1.000     C          -0.15853599999999998          
         C35       1.0000    0.42821   0.91161   0.36881   Biso      1.000     C          0.594331  
         C36       1.0000    0.25940   0.40670   0.77070   Biso      1.000     C          0.12498499999999998           
         C37       1.0000    0.32004   0.22384   0.63504   Biso      1.000     C          -0.20723899999999998          
         C38       1.0000    0.26211   0.29541   0.65551   Biso      1.000     C          0.269362  
         C39       1.0000    0.19439   0.34179   0.62339   Biso      1.000     C          -0.24845799999999998          
         C40       1.0000    0.18684   0.31564   0.57144   Biso      1.000     C          0.005884  
         C41       1.0000    0.24272   0.24302   0.55242   Biso      1.000     C          -0.15018299999999998          
         C42       1.0000    0.31022   0.19652   0.58542   Biso      1.000     C          -0.011081           
         C43       1.0000    0.37516   0.11956   0.56096   Biso      1.000     C          0.691924  
         C44       1.0000    0.36351   0.53501   0.11741   Biso      1.000     C          0.673558  
         C45       1.0000    0.42480   0.73310   0.33230   Biso      1.000     C          -0.152396           
         C46       1.0000    0.22570   0.39530   0.72040   Biso      1.000     C          -0.073135           
         C47       1.0000    0.88044   0.43904   0.62484   Biso      1.000     C          0.691925  
         C48       1.0000    0.80348   0.41458   0.68978   Biso      1.000     C          -0.011091           
         C49       1.0000    0.75698   0.44758   0.75728   Biso      1.000     C          -0.150186           
         C50       1.0000    0.63119   0.57179   0.08839   Biso      1.000     C          0.594334  
         C51       1.0000    0.63090   0.56970   0.22100   Biso      1.000     C          -0.10788199999999999          
         C52       1.0000    0.66770   0.57520   0.26690   Biso      1.000     C          -0.15241300000000002          
         C53       1.0000    0.88259   0.63649   0.46499   Biso      1.000     C          0.673558  
         C54       1.0000    0.43904   0.62484   0.88044   Biso      1.000     C          0.691925  
         C55       1.0000    0.41458   0.68978   0.80348   Biso      1.000     C          -0.011091           
         C56       1.0000    0.44758   0.75728   0.75698   Biso      1.000     C          -0.150186           
         C57       1.0000    0.42856   0.81316   0.68436   Biso      1.000     C          0.005877  
         C58       1.0000    0.37661   0.80561   0.65821   Biso      1.000     C          -0.248446           
         C59       1.0000    0.67138   0.57718   0.13728   Biso      1.000     C          -0.004718           
         C60       1.0000    0.34449   0.73789   0.70459   Biso      1.000     C          0.269358  
         C61       1.0000    0.27960   0.77430   0.60470   Biso      1.000     C          -0.073134           
         C62       1.0000    0.22930   0.74060   0.59330   Biso      1.000     C          0.12496199999999999           
         C63       1.0000    0.14680   0.78170   0.59780   Biso      1.000     C          -0.158524           
         C64       1.0000    0.10190   0.74560   0.59060   Biso      1.000     C          -0.093929           
         C65       1.0000    0.13728   0.67138   0.57718   Biso      1.000     C          -0.004693999999999999         
         C66       1.0000    0.08839   0.63119   0.57179   Biso      1.000     C          0.594332  
         C67       1.0000    0.22100   0.63090   0.56970   Biso      1.000     C          -0.10788299999999999          
         C68       1.0000    0.26690   0.66770   0.57520   Biso      1.000     C          -0.152395           
         C69       1.0000    0.46499   0.88259   0.63649   Biso      1.000     C          0.673558  
         C70       1.0000    0.36496   0.67996   0.77616   Biso      1.000     C          -0.207227           
         C71       1.0000    0.74560   0.59060   0.10190   Biso      1.000     C          -0.0939   
         C72       1.0000    0.78170   0.59780   0.14680   Biso      1.000     C          -0.15853599999999998          
         C73       1.0000    0.74060   0.59330   0.22930   Biso      1.000     C          0.12498499999999998           
         C74       1.0000    0.68436   0.42856   0.81316   Biso      1.000     C          0.005877  
         C75       1.0000    0.65821   0.37661   0.80561   Biso      1.000     C          -0.248446           
         C76       1.0000    0.70459   0.34449   0.73789   Biso      1.000     C          0.269358  
         C77       1.0000    0.77616   0.36496   0.67996   Biso      1.000     C          -0.20722800000000002          
         C78       1.0000    0.60470   0.27960   0.77430   Biso      1.000     C          -0.073134           
         C79       1.0000    0.59330   0.22930   0.74060   Biso      1.000     C          0.12496199999999999           
         C80       1.0000    0.59780   0.14680   0.78170   Biso      1.000     C          -0.158524           
         C81       1.0000    0.59060   0.10190   0.74560   Biso      1.000     C          -0.093929           
         C82       1.0000    0.57718   0.13728   0.67138   Biso      1.000     C          -0.004693999999999999         
         C83       1.0000    0.57179   0.08839   0.63119   Biso      1.000     C          0.594332  
         C84       1.0000    0.56970   0.22100   0.63090   Biso      1.000     C          -0.10788299999999999          
         C85       1.0000    0.57520   0.26690   0.66770   Biso      1.000     C          -0.152396           
         C86       1.0000    0.63649   0.46499   0.88259   Biso      1.000     C          0.673558  
         C87       1.0000    0.62484   0.88044   0.43904   Biso      1.000     C          0.691925  
         C88       1.0000    0.68978   0.80348   0.41458   Biso      1.000     C          -0.011091           
         C89       1.0000    0.75728   0.75698   0.44758   Biso      1.000     C          -0.15018499999999999          
         C90       1.0000    0.81316   0.68436   0.42856   Biso      1.000     C          0.005877  
         C91       1.0000    0.80561   0.65821   0.37661   Biso      1.000     C          -0.248446           
         C92       1.0000    0.73789   0.70459   0.34449   Biso      1.000     C          0.269358  
         C93       1.0000    0.67996   0.77616   0.36496   Biso      1.000     C          -0.207227           
         C94       1.0000    0.77430   0.60470   0.27960   Biso      1.000     C          -0.073135           
         C95       1.0000    0.55242   0.24272   0.24302   Biso      1.000     C          -0.15018800000000002          
         C96       1.0000    0.57144   0.18684   0.31564   Biso      1.000     C          0.005888  
         Er1       1.0000    0.99556   0.55932   0.56628   Biso      1.000     Er          2.05954   
         Er2       1.0000    0.56628   0.99556   0.55932   Biso      1.000     Er          2.059539  
         Er3       1.0000    0.55932   0.56628   0.99556   Biso      1.000     Er          2.05954   
         Er4       1.0000    0.00444   0.44068   0.43372   Biso      1.000     Er          2.05954   
         Er5       1.0000    0.43372   0.00444   0.44068   Biso      1.000     Er          2.059539  
         Er6       1.0000    0.44068   0.43372   0.00444   Biso      1.000     Er          2.059539  
         H1        1.0000    0.24700   0.57880   0.56100   Biso      1.000     H          0.11314600000000001           
         H2        1.0000    0.16770   0.39640   0.75030   Biso      1.000     H          0.09274299999999999           
         H3        1.0000    0.16580   0.39410   0.87930   Biso      1.000     H          0.115854  
         H4        1.0000    0.22610   0.40480   0.95470   Biso      1.000     H          0.11684800000000001           
         H5        1.0000    0.42120   0.43900   0.75300   Biso      1.000     H          0.11314600000000001           
         H6        1.0000    0.63730   0.15520   0.38990   Biso      1.000     H          0.124778  
         H7        1.0000    0.51810   0.23590   0.22500   Biso      1.000     H          0.129634  
         H8        1.0000    0.22820   0.43990   0.66700   Biso      1.000     H          0.099339  
         H9        1.0000    0.65530   0.36580   0.19430   Biso      1.000     H          0.147294  
         H10       1.0000    0.66700   0.22820   0.43990   Biso      1.000     H          0.099339  
         H11       1.0000    0.35830   0.43380   0.67560   Biso      1.000     H          0.11361199999999999           
         H12       1.0000    0.36580   0.19430   0.65530   Biso      1.000     H          0.147294  
         H13       1.0000    0.43380   0.67560   0.35830   Biso      1.000     H          0.11361099999999999           
         H14       1.0000    0.23590   0.22500   0.51810   Biso      1.000     H          0.129633  
         H15       1.0000    0.75030   0.16770   0.39640   Biso      1.000     H          0.09274299999999999           
         H16       1.0000    0.43900   0.75300   0.42120   Biso      1.000     H          0.11314600000000001           
         H17       1.0000    0.40480   0.95470   0.22610   Biso      1.000     H          0.11685   
         H18       1.0000    0.39410   0.87930   0.16580   Biso      1.000     H          0.115853  
         H19       1.0000    0.39640   0.75030   0.16770   Biso      1.000     H          0.09274299999999999           
         H20       1.0000    0.32440   0.64170   0.56620   Biso      1.000     H          0.11361099999999999           
         H21       1.0000    0.19430   0.65530   0.36580   Biso      1.000     H          0.147294  
         H22       1.0000    0.38990   0.63730   0.15520   Biso      1.000     H          0.124778  
         H23       1.0000    0.22500   0.51810   0.23590   Biso      1.000     H          0.129633  
         H24       1.0000    0.15520   0.38990   0.63730   Biso      1.000     H          0.124778  
         H25       1.0000    0.87930   0.16580   0.39410   Biso      1.000     H          0.115853  
         H26       1.0000    0.43990   0.66700   0.22820   Biso      1.000     H          0.099339  
         H27       1.0000    0.75300   0.42120   0.43900   Biso      1.000     H          0.11314600000000001           
         H28       1.0000    0.95470   0.22610   0.40480   Biso      1.000     H          0.11685   
         H29       1.0000    0.04530   0.77390   0.59520   Biso      1.000     H          0.11685   
         H30       1.0000    0.12070   0.83420   0.60590   Biso      1.000     H          0.115852  
         H31       1.0000    0.24970   0.83230   0.60360   Biso      1.000     H          0.09274299999999999           
         H32       1.0000    0.34470   0.63420   0.80570   Biso      1.000     H          0.147293  
         H33       1.0000    0.36270   0.84480   0.61010   Biso      1.000     H          0.124777  
         H34       1.0000    0.48190   0.76410   0.77500   Biso      1.000     H          0.129633  
         H35       1.0000    0.64170   0.56620   0.32440   Biso      1.000     H          0.11361199999999999           
         H36       1.0000    0.57880   0.56100   0.24700   Biso      1.000     H          0.11314600000000001           
         H37       1.0000    0.77390   0.59520   0.04530   Biso      1.000     H          0.11684800000000001           
         H38       1.0000    0.83420   0.60590   0.12070   Biso      1.000     H          0.115854  
         H39       1.0000    0.83230   0.60360   0.24970   Biso      1.000     H          0.09274299999999999           
         H40       1.0000    0.77180   0.56010   0.33300   Biso      1.000     H          0.099339  
         H41       1.0000    0.33300   0.77180   0.56010   Biso      1.000     H          0.099339  
         H42       1.0000    0.84480   0.61010   0.36270   Biso      1.000     H          0.124777  
         H43       1.0000    0.67560   0.35830   0.43380   Biso      1.000     H          0.11361099999999999           
         H44       1.0000    0.63420   0.80570   0.34470   Biso      1.000     H          0.147293  
         H45       1.0000    0.77500   0.48190   0.76410   Biso      1.000     H          0.129633  
         H46       1.0000    0.80570   0.34470   0.63420   Biso      1.000     H          0.147293  
         H47       1.0000    0.56010   0.33300   0.77180   Biso      1.000     H          0.099339  
         H48       1.0000    0.61010   0.36270   0.84480   Biso      1.000     H          0.124777  
         H49       1.0000    0.60590   0.12070   0.83420   Biso      1.000     H          0.115853  
         H50       1.0000    0.59520   0.04530   0.77390   Biso      1.000     H          0.11685   
         H51       1.0000    0.56100   0.24700   0.57880   Biso      1.000     H          0.11314600000000001           
         H52       1.0000    0.56620   0.32440   0.64170   Biso      1.000     H          0.11361099999999999           
         H53       1.0000    0.76410   0.77500   0.48190   Biso      1.000     H          0.129633  
         H54       1.0000    0.60360   0.24970   0.83230   Biso      1.000     H          0.09274199999999999           
         O1        1.0000    0.89528   0.49398   0.63168   Biso      1.000     O          -0.722151           
         O2        1.0000    0.63168   0.89528   0.49398   Biso      1.000     O          -0.722151           
         O3        1.0000    0.56208   0.01738   0.67498   Biso      1.000     O          -0.65762  
         O4        1.0000    0.57872   0.11722   0.55532   Biso      1.000     O          -0.662185           
         O5        1.0000    0.66361   0.50801   0.89291   Biso      1.000     O          -0.623092           
         O6        1.0000    0.56678   0.45278   0.92998   Biso      1.000     O          -0.767157           
         O7        1.0000    0.68365   0.29285   0.72395   Biso      1.000     O          -0.198464           
         O8        1.0000    0.56979   0.92129   0.40479   Biso      1.000     O          -0.63462  
         O9        1.0000    0.67498   0.56208   0.01738   Biso      1.000     O          -0.657621           
         O10       1.0000    0.40479   0.56979   0.92129   Biso      1.000     O          -0.63462  
         O11       1.0000    0.89291   0.66361   0.50801   Biso      1.000     O          -0.623092           
         O12       1.0000    0.92998   0.56678   0.45278   Biso      1.000     O          -0.767157           
         O13       1.0000    0.72395   0.68365   0.29285   Biso      1.000     O          -0.198463           
         O14       1.0000    0.49398   0.63168   0.89528   Biso      1.000     O          -0.722151           
         O15       1.0000    0.01738   0.67498   0.56208   Biso      1.000     O          -0.65762  
         O16       1.0000    0.11722   0.55532   0.57872   Biso      1.000     O          -0.662185           
         O17       1.0000    0.50801   0.89291   0.66361   Biso      1.000     O          -0.623092           
         O18       1.0000    0.92129   0.40479   0.56979   Biso      1.000     O          -0.63462  
         O19       1.0000    0.55532   0.57872   0.11722   Biso      1.000     O          -0.662185           
         O20       1.0000    0.70715   0.27605   0.31635   Biso      1.000     O          -0.198464           
         O21       1.0000    0.31635   0.70715   0.27605   Biso      1.000     O          -0.198464           
         O22       1.0000    0.49199   0.10709   0.33639   Biso      1.000     O          -0.623091           
         O23       1.0000    0.45278   0.92998   0.56678   Biso      1.000     O          -0.767157           
         O24       1.0000    0.07871   0.59521   0.43021   Biso      1.000     O          -0.63462  
         O25       1.0000    0.10472   0.50602   0.36832   Biso      1.000     O          -0.722151           
         O26       1.0000    0.43792   0.98262   0.32502   Biso      1.000     O          -0.65762  
         O27       1.0000    0.42128   0.88278   0.44468   Biso      1.000     O          -0.662185           
         O28       1.0000    0.33639   0.49199   0.10709   Biso      1.000     O          -0.623092           
         O29       1.0000    0.43322   0.54722   0.07002   Biso      1.000     O          -0.767157           
         O30       1.0000    0.43021   0.07871   0.59521   Biso      1.000     O          -0.63462  
         O31       1.0000    0.54722   0.07002   0.43322   Biso      1.000     O          -0.767157           
         O32       1.0000    0.36832   0.10472   0.50602   Biso      1.000     O          -0.722151           
         O33       1.0000    0.44468   0.42128   0.88278   Biso      1.000     O          -0.662185           
         O34       1.0000    0.10709   0.33639   0.49199   Biso      1.000     O          -0.623092           
         O35       1.0000    0.07002   0.43322   0.54722   Biso      1.000     O          -0.767157           
         O36       1.0000    0.27605   0.31635   0.70715   Biso      1.000     O          -0.198463           
         O37       1.0000    0.59521   0.43021   0.07871   Biso      1.000     O          -0.63462  
         O38       1.0000    0.50602   0.36832   0.10472   Biso      1.000     O          -0.722151           
         O39       1.0000    0.98262   0.32502   0.43792   Biso      1.000     O          -0.65762  
         O40       1.0000    0.88278   0.44468   0.42128   Biso      1.000     O          -0.662185           
         O41       1.0000    0.32502   0.43792   0.98262   Biso      1.000     O          -0.65762  
         O42       1.0000    0.29285   0.72395   0.68365   Biso      1.000     O          -0.198464 