
##########################################################################
#               Crystallographic Information Format file
#               Produced by PyCifRW module
#
#  This is a CIF file.  CIF has been adopted by the International
#  Union of Crystallography as the standard for data archiving and
#  transmission.
#
#  For information on this file format, follow the CIF links at
#  http://www.iucr.org
##########################################################################

data_image0

_cell_length_a                          18.9584
_cell_length_b                          18.9584
_cell_length_c                          18.9584
_cell_angle_alpha                       62.9312
_cell_angle_beta                        62.9312
_cell_angle_gamma                       62.9312
_symmetry_space_group_name_H-M          'P 1'
_symmetry_int_tables_number             1
loop_
  _symmetry_equiv_pos_as_xyz
         'x, y, z' 
loop_
  _atom_site_label
  _atom_site_occupancy
  _atom_site_fract_x
  _atom_site_fract_y
  _atom_site_fract_z
  _atom_site_thermal_displace_type
  _atom_site_B_iso_or_equiv
  _atom_site_type_symbol
  _atom_site_charge
         C1        1.0000    0.73720   0.34730   0.70240   Biso      1.000     C          0.248244  
         C2        1.0000    0.26590   0.58120   0.66340   Biso      1.000     C          -0.138667           
         C3        1.0000    0.23420   0.59420   0.73520   Biso      1.000     C          0.137259  
         C4        1.0000    0.77400   0.67860   0.36790   Biso      1.000     C          -0.200324           
         C5        1.0000    0.70240   0.73720   0.34730   Biso      1.000     C          0.248243  
         C6        1.0000    0.65590   0.80240   0.38050   Biso      1.000     C          -0.22914  
         C7        1.0000    0.63654   0.88264   0.46494   Biso      1.000     C          0.667396  
         C8        1.0000    0.68462   0.81172   0.42952   Biso      1.000     C          0.001179  
         C9        1.0000    0.75529   0.75599   0.44929   Biso      1.000     C          -0.138005           
         C10       1.0000    0.80160   0.68880   0.41740   Biso      1.000     C          -0.011022           
         C11       1.0000    0.22220   0.57040   0.63000   Biso      1.000     C          -0.09323300000000001          
         C12       1.0000    0.87920   0.62420   0.44010   Biso      1.000     C          0.684136  
         C13       1.0000    0.80240   0.38050   0.65590   Biso      1.000     C          -0.22914099999999998          
         C14       1.0000    0.67860   0.36790   0.77400   Biso      1.000     C          -0.200324           
         C15       1.0000    0.59420   0.73520   0.23420   Biso      1.000     C          0.137217  
         C16       1.0000    0.58120   0.66340   0.26590   Biso      1.000     C          -0.138621           
         C17       1.0000    0.57040   0.63000   0.22220   Biso      1.000     C          -0.093239           
         C18       1.0000    0.57630   0.66970   0.14120   Biso      1.000     C          -0.014268000000000001         
         C19       1.0000    0.57140   0.63110   0.08960   Biso      1.000     C          0.593305  
         C20       1.0000    0.58480   0.74510   0.10770   Biso      1.000     C          -0.105651           
         C21       1.0000    0.59700   0.77700   0.15540   Biso      1.000     C          -0.176785           
         C22       1.0000    0.88264   0.46494   0.63654   Biso      1.000     C          0.667395  
         C23       1.0000    0.61310   0.78370   0.26640   Biso      1.000     C          -0.086845           
         C24       1.0000    0.14120   0.57630   0.66970   Biso      1.000     C          -0.014269           
         C25       1.0000    0.10770   0.58480   0.74510   Biso      1.000     C          -0.10565  
         C26       1.0000    0.68880   0.41740   0.80160   Biso      1.000     C          -0.01102  
         C27       1.0000    0.62420   0.44010   0.87920   Biso      1.000     C          0.684137  
         C28       1.0000    0.78370   0.26640   0.61310   Biso      1.000     C          -0.086851           
         C29       1.0000    0.77700   0.15540   0.59700   Biso      1.000     C          -0.176821           
         C30       1.0000    0.74510   0.10770   0.58480   Biso      1.000     C          -0.10568  
         C31       1.0000    0.63110   0.08960   0.57140   Biso      1.000     C          0.5933039999999999  
         C32       1.0000    0.66970   0.14120   0.57630   Biso      1.000     C          -0.014256999999999999         
         C33       1.0000    0.63000   0.22220   0.57040   Biso      1.000     C          -0.093216           
         C34       1.0000    0.66340   0.26590   0.58120   Biso      1.000     C          -0.138667           
         C35       1.0000    0.08960   0.57140   0.63110   Biso      1.000     C          0.593305  
         C36       1.0000    0.73520   0.23420   0.59420   Biso      1.000     C          0.137291  
         C37       1.0000    0.34730   0.70240   0.73720   Biso      1.000     C          0.248243  
         C38       1.0000    0.38050   0.65590   0.80240   Biso      1.000     C          -0.22913899999999998          
         C39       1.0000    0.46494   0.63654   0.88264   Biso      1.000     C          0.667396  
         C40       1.0000    0.42952   0.68462   0.81172   Biso      1.000     C          0.001179  
         C41       1.0000    0.44929   0.75529   0.75599   Biso      1.000     C          -0.138005           
         C42       1.0000    0.41740   0.80160   0.68880   Biso      1.000     C          -0.011026000000000001         
         C43       1.0000    0.44010   0.87920   0.62420   Biso      1.000     C          0.684138  
         C44       1.0000    0.26640   0.61310   0.78370   Biso      1.000     C          -0.086849           
         C45       1.0000    0.15540   0.59700   0.77700   Biso      1.000     C          -0.17679  
         C46       1.0000    0.36790   0.77400   0.67860   Biso      1.000     C          -0.20032  
         C47       1.0000    0.12080   0.37580   0.55990   Biso      1.000     C          0.684137  
         C48       1.0000    0.19840   0.31120   0.58260   Biso      1.000     C          -0.011025           
         C49       1.0000    0.24471   0.24401   0.55071   Biso      1.000     C          -0.138015           
         C50       1.0000    0.36890   0.91040   0.42860   Biso      1.000     C          0.5933039999999999  
         C51       1.0000    0.25490   0.89230   0.41520   Biso      1.000     C          -0.10568  
         C52       1.0000    0.22300   0.84460   0.40300   Biso      1.000     C          -0.176821           
         C53       1.0000    0.21630   0.73360   0.38690   Biso      1.000     C          -0.086851           
         C54       1.0000    0.37580   0.55990   0.12080   Biso      1.000     C          0.684137  
         C55       1.0000    0.31120   0.58260   0.19840   Biso      1.000     C          -0.011023999999999999         
         C56       1.0000    0.24401   0.55071   0.24471   Biso      1.000     C          -0.138015           
         C57       1.0000    0.18828   0.57048   0.31538   Biso      1.000     C          0.001186  
         C58       1.0000    0.11736   0.53506   0.36346   Biso      1.000     C          0.667395  
         C59       1.0000    0.33030   0.85880   0.42370   Biso      1.000     C          -0.014256999999999999         
         C60       1.0000    0.19760   0.61950   0.34410   Biso      1.000     C          -0.229136           
         C61       1.0000    0.32140   0.63210   0.22600   Biso      1.000     C          -0.20032  
         C62       1.0000    0.40580   0.26480   0.76580   Biso      1.000     C          0.137217  
         C63       1.0000    0.41880   0.33660   0.73410   Biso      1.000     C          -0.13862  
         C64       1.0000    0.42960   0.37000   0.77780   Biso      1.000     C          -0.093239           
         C65       1.0000    0.42370   0.33030   0.85880   Biso      1.000     C          -0.014268000000000001         
         C66       1.0000    0.42860   0.36890   0.91040   Biso      1.000     C          0.593305  
         C67       1.0000    0.41520   0.25490   0.89230   Biso      1.000     C          -0.105651           
         C68       1.0000    0.40300   0.22300   0.84460   Biso      1.000     C          -0.176786           
         C69       1.0000    0.38690   0.21630   0.73360   Biso      1.000     C          -0.086845           
         C70       1.0000    0.26280   0.65270   0.29760   Biso      1.000     C          0.248243  
         C71       1.0000    0.37000   0.77780   0.42960   Biso      1.000     C          -0.093216           
         C72       1.0000    0.33660   0.73410   0.41880   Biso      1.000     C          -0.138667           
         C73       1.0000    0.26480   0.76580   0.40580   Biso      1.000     C          0.137291  
         C74       1.0000    0.31538   0.18828   0.57048   Biso      1.000     C          0.001186  
         C75       1.0000    0.36346   0.11736   0.53506   Biso      1.000     C          0.667395  
         C76       1.0000    0.34410   0.19760   0.61950   Biso      1.000     C          -0.229136           
         C77       1.0000    0.29760   0.26280   0.65270   Biso      1.000     C          0.248243  
         C78       1.0000    0.22600   0.32140   0.63210   Biso      1.000     C          -0.20032  
         C79       1.0000    0.76580   0.40580   0.26480   Biso      1.000     C          0.137217  
         C80       1.0000    0.73410   0.41880   0.33660   Biso      1.000     C          -0.138621           
         C81       1.0000    0.77780   0.42960   0.37000   Biso      1.000     C          -0.093239           
         C82       1.0000    0.85880   0.42370   0.33030   Biso      1.000     C          -0.014268000000000001         
         C83       1.0000    0.91040   0.42860   0.36890   Biso      1.000     C          0.593305  
         C84       1.0000    0.89230   0.41520   0.25490   Biso      1.000     C          -0.105652           
         C85       1.0000    0.84460   0.40300   0.22300   Biso      1.000     C          -0.176786           
         C86       1.0000    0.73360   0.38690   0.21630   Biso      1.000     C          -0.086845           
         C87       1.0000    0.55990   0.12080   0.37580   Biso      1.000     C          0.684137  
         C88       1.0000    0.58260   0.19840   0.31120   Biso      1.000     C          -0.011023999999999999         
         C89       1.0000    0.55071   0.24471   0.24401   Biso      1.000     C          -0.138015           
         C90       1.0000    0.57048   0.31538   0.18828   Biso      1.000     C          0.001186  
         C91       1.0000    0.53506   0.36346   0.11736   Biso      1.000     C          0.667395  
         C92       1.0000    0.61950   0.34410   0.19760   Biso      1.000     C          -0.229136           
         C93       1.0000    0.65270   0.29760   0.26280   Biso      1.000     C          0.248243  
         C94       1.0000    0.63210   0.22600   0.32140   Biso      1.000     C          -0.20032  
         C95       1.0000    0.75599   0.44929   0.75529   Biso      1.000     C          -0.138016           
         C96       1.0000    0.81172   0.42952   0.68462   Biso      1.000     C          0.001191  
         Dy1       1.0000    0.99568   0.56638   0.55946   Biso      1.000     Dy          2.060597  
         Dy2       1.0000    0.55946   0.99568   0.56638   Biso      1.000     Dy          2.060598  
         Dy3       1.0000    0.56638   0.55946   0.99568   Biso      1.000     Dy          2.060598  
         Dy4       1.0000    0.00432   0.43362   0.44054   Biso      1.000     Dy          2.060597  
         Dy5       1.0000    0.44054   0.00432   0.43362   Biso      1.000     Dy          2.060598  
         Dy6       1.0000    0.43362   0.44054   0.00432   Biso      1.000     Dy          2.060598  
         H1        1.0000    0.35720   0.17810   0.77840   Biso      1.000     H          0.11508   
         H2        1.0000    0.57950   0.24870   0.55900   Biso      1.000     H          0.11625799999999999           
         H3        1.0000    0.77690   0.05370   0.58270   Biso      1.000     H          0.116844  
         H4        1.0000    0.82820   0.13050   0.60700   Biso      1.000     H          0.10678800000000001           
         H5        1.0000    0.82190   0.22160   0.64280   Biso      1.000     H          0.11508099999999999           
         H6        1.0000    0.83950   0.36970   0.60620   Biso      1.000     H          0.127512  
         H7        1.0000    0.76260   0.48390   0.77260   Biso      1.000     H          0.129046  
         H8        1.0000    0.63320   0.32120   0.57920   Biso      1.000     H          0.108127  
         H9        1.0000    0.63290   0.34840   0.80290   Biso      1.000     H          0.149048  
         H10       1.0000    0.57920   0.63320   0.32120   Biso      1.000     H          0.108123  
         H11       1.0000    0.81380   0.30130   0.56280   Biso      1.000     H          0.11355799999999999           
         H12       1.0000    0.34840   0.80290   0.63290   Biso      1.000     H          0.149048  
         H13       1.0000    0.30130   0.56280   0.81380   Biso      1.000     H          0.11355699999999999           
         H14       1.0000    0.48390   0.77260   0.76260   Biso      1.000     H          0.129045  
         H15       1.0000    0.55900   0.57950   0.24870   Biso      1.000     H          0.11625899999999999           
         H16       1.0000    0.22160   0.64280   0.82190   Biso      1.000     H          0.11508   
         H17       1.0000    0.13050   0.60700   0.82820   Biso      1.000     H          0.10678599999999999           
         H18       1.0000    0.05370   0.58270   0.77690   Biso      1.000     H          0.116842  
         H19       1.0000    0.24870   0.55900   0.57950   Biso      1.000     H          0.11625899999999999           
         H20       1.0000    0.43720   0.18620   0.69870   Biso      1.000     H          0.11355699999999999           
         H21       1.0000    0.80290   0.63290   0.34840   Biso      1.000     H          0.149048  
         H22       1.0000    0.60620   0.83950   0.36970   Biso      1.000     H          0.127512  
         H23       1.0000    0.77260   0.76260   0.48390   Biso      1.000     H          0.129045  
         H24       1.0000    0.36970   0.60620   0.83950   Biso      1.000     H          0.127512  
         H25       1.0000    0.58270   0.77690   0.05370   Biso      1.000     H          0.116842  
         H26       1.0000    0.32120   0.57920   0.63320   Biso      1.000     H          0.108127  
         H27       1.0000    0.64280   0.82190   0.22160   Biso      1.000     H          0.11508   
         H28       1.0000    0.60700   0.82820   0.13050   Biso      1.000     H          0.10678499999999999           
         H29       1.0000    0.39300   0.17180   0.86950   Biso      1.000     H          0.10678499999999999           
         H30       1.0000    0.41730   0.22310   0.94630   Biso      1.000     H          0.116842  
         H31       1.0000    0.44100   0.42050   0.75130   Biso      1.000     H          0.11625899999999999           
         H32       1.0000    0.36710   0.65160   0.19710   Biso      1.000     H          0.149048  
         H33       1.0000    0.16050   0.63030   0.39380   Biso      1.000     H          0.127512  
         H34       1.0000    0.23740   0.51610   0.22740   Biso      1.000     H          0.129046  
         H35       1.0000    0.18620   0.69870   0.43720   Biso      1.000     H          0.11355799999999999           
         H36       1.0000    0.17810   0.77840   0.35720   Biso      1.000     H          0.11508099999999999           
         H37       1.0000    0.17180   0.86950   0.39300   Biso      1.000     H          0.10678900000000001           
         H38       1.0000    0.22310   0.94630   0.41730   Biso      1.000     H          0.116844  
         H39       1.0000    0.42050   0.75130   0.44100   Biso      1.000     H          0.11625799999999999           
         H40       1.0000    0.36680   0.67880   0.42080   Biso      1.000     H          0.108127  
         H41       1.0000    0.42080   0.36680   0.67880   Biso      1.000     H          0.108124  
         H42       1.0000    0.63030   0.39380   0.16050   Biso      1.000     H          0.127512  
         H43       1.0000    0.56280   0.81380   0.30130   Biso      1.000     H          0.11355699999999999           
         H44       1.0000    0.65160   0.19710   0.36710   Biso      1.000     H          0.149048  
         H45       1.0000    0.22740   0.23740   0.51610   Biso      1.000     H          0.129046  
         H46       1.0000    0.19710   0.36710   0.65160   Biso      1.000     H          0.149048  
         H47       1.0000    0.67880   0.42080   0.36680   Biso      1.000     H          0.108124  
         H48       1.0000    0.39380   0.16050   0.63030   Biso      1.000     H          0.127512  
         H49       1.0000    0.94630   0.41730   0.22310   Biso      1.000     H          0.116842  
         H50       1.0000    0.86950   0.39300   0.17180   Biso      1.000     H          0.10678499999999999           
         H51       1.0000    0.77840   0.35720   0.17810   Biso      1.000     H          0.11508   
         H52       1.0000    0.69870   0.43720   0.18620   Biso      1.000     H          0.11355699999999999           
         H53       1.0000    0.51610   0.22740   0.23740   Biso      1.000     H          0.129046  
         H54       1.0000    0.75130   0.44100   0.42050   Biso      1.000     H          0.11625999999999999           
         O1        1.0000    0.08015   0.43075   0.59405   Biso      1.000     O          -0.6304569999999999           
         O2        1.0000    0.59405   0.08015   0.43075   Biso      1.000     O          -0.63046  
         O3        1.0000    0.88175   0.42175   0.44505   Biso      1.000     O          -0.667442           
         O4        1.0000    0.98007   0.43897   0.32537   Biso      1.000     O          -0.649609           
         O5        1.0000    0.43282   0.07142   0.54602   Biso      1.000     O          -0.756911           
         O6        1.0000    0.33540   0.10760   0.49260   Biso      1.000     O          -0.626195           
         O7        1.0000    0.33130   0.29250   0.68260   Biso      1.000     O          -0.22674  
         O8        1.0000    0.50623   0.10483   0.36813   Biso      1.000     O          -0.723073           
         O9        1.0000    0.44505   0.88175   0.42175   Biso      1.000     O          -0.667442           
         O10       1.0000    0.36813   0.50623   0.10483   Biso      1.000     O          -0.723073           
         O11       1.0000    0.54602   0.43282   0.07142   Biso      1.000     O          -0.756911           
         O12       1.0000    0.49260   0.33540   0.10760   Biso      1.000     O          -0.626195           
         O13       1.0000    0.68260   0.33130   0.29250   Biso      1.000     O          -0.22674  
         O14       1.0000    0.43075   0.59405   0.08015   Biso      1.000     O          -0.63046  
         O15       1.0000    0.42175   0.44505   0.88175   Biso      1.000     O          -0.667441           
         O16       1.0000    0.43897   0.32537   0.98007   Biso      1.000     O          -0.649609           
         O17       1.0000    0.07142   0.54602   0.43282   Biso      1.000     O          -0.756911           
         O18       1.0000    0.10483   0.36813   0.50623   Biso      1.000     O          -0.723073           
         O19       1.0000    0.32537   0.98007   0.43897   Biso      1.000     O          -0.649608           
         O20       1.0000    0.70750   0.31740   0.66870   Biso      1.000     O          -0.226739           
         O21       1.0000    0.66870   0.70750   0.31740   Biso      1.000     O          -0.22674  
         O22       1.0000    0.92858   0.45398   0.56718   Biso      1.000     O          -0.756911           
         O23       1.0000    0.10760   0.49260   0.33540   Biso      1.000     O          -0.626195           
         O24       1.0000    0.89517   0.63187   0.49377   Biso      1.000     O          -0.723074           
         O25       1.0000    0.91985   0.56925   0.40595   Biso      1.000     O          -0.6304569999999999           
         O26       1.0000    0.11825   0.57825   0.55495   Biso      1.000     O          -0.667442           
         O27       1.0000    0.01993   0.56103   0.67463   Biso      1.000     O          -0.649609           
         O28       1.0000    0.56718   0.92858   0.45398   Biso      1.000     O          -0.756911           
         O29       1.0000    0.66460   0.89240   0.50740   Biso      1.000     O          -0.626196           
         O30       1.0000    0.49377   0.89517   0.63187   Biso      1.000     O          -0.723073           
         O31       1.0000    0.89240   0.50740   0.66460   Biso      1.000     O          -0.626195           
         O32       1.0000    0.40595   0.91985   0.56925   Biso      1.000     O          -0.63046  
         O33       1.0000    0.67463   0.01993   0.56103   Biso      1.000     O          -0.649608           
         O34       1.0000    0.45398   0.56718   0.92858   Biso      1.000     O          -0.756911           
         O35       1.0000    0.50740   0.66460   0.89240   Biso      1.000     O          -0.626195           
         O36       1.0000    0.31740   0.66870   0.70750   Biso      1.000     O          -0.226739           
         O37       1.0000    0.63187   0.49377   0.89517   Biso      1.000     O          -0.723073           
         O38       1.0000    0.56925   0.40595   0.91985   Biso      1.000     O          -0.63046  
         O39       1.0000    0.57825   0.55495   0.11825   Biso      1.000     O          -0.667441           
         O40       1.0000    0.56103   0.67463   0.01993   Biso      1.000     O          -0.649609           
         O41       1.0000    0.55495   0.11825   0.57825   Biso      1.000     O          -0.667442           
         O42       1.0000    0.29250   0.68260   0.33130   Biso      1.000     O          -0.226739 