
##########################################################################
#               Crystallographic Information Format file
#               Produced by PyCifRW module
#
#  This is a CIF file.  CIF has been adopted by the International
#  Union of Crystallography as the standard for data archiving and
#  transmission.
#
#  For information on this file format, follow the CIF links at
#  http://www.iucr.org
##########################################################################

data_image0

_cell_length_a                          19.012
_cell_length_b                          19.012
_cell_length_c                          19.012
_cell_angle_alpha                       62.9587
_cell_angle_beta                        62.9587
_cell_angle_gamma                       62.9587
_symmetry_space_group_name_H-M          'P 1'
_symmetry_int_tables_number             1
loop_
  _symmetry_equiv_pos_as_xyz
         'x, y, z' 
loop_
  _atom_site_label
  _atom_site_occupancy
  _atom_site_fract_x
  _atom_site_fract_y
  _atom_site_fract_z
  _atom_site_thermal_displace_type
  _atom_site_B_iso_or_equiv
  _atom_site_type_symbol
  _atom_site_charge
         C1        1.0000    0.86770   0.17930   0.27330   Biso      1.000     C          -0.202159           
         C2        1.0000    0.64210   0.16910   0.07650   Biso      1.000     C          -0.018955           
         C3        1.0000    0.72280   0.13200   0.06830   Biso      1.000     C          -0.089108           
         C4        1.0000    0.76900   0.16730   0.07470   Biso      1.000     C          -0.1467   
         C5        1.0000    0.96539   0.38209   0.13719   Biso      1.000     C          0.66976   
         C6        1.0000    0.59080   0.13150   0.07120   Biso      1.000     C          0.600495  
         C7        1.0000    0.77110   0.28210   0.10990   Biso      1.000     C          -0.088175           
         C8        1.0000    0.62060   0.06020   0.87530   Biso      1.000     C          0.6828350000000001  
         C9        1.0000    0.69856   0.08346   0.81056   Biso      1.000     C          -0.010541           
         C10       1.0000    0.74430   0.05090   0.74350   Biso      1.000     C          -0.145257           
         C11       1.0000    0.81561   0.07051   0.68711   Biso      1.000     C          0.0017699999999999999         
         C12       1.0000    0.84360   0.12020   0.69580   Biso      1.000     C          -0.230674           
         C13       1.0000    0.79790   0.15130   0.76320   Biso      1.000     C          0.254873  
         C14       1.0000    0.72670   0.13230   0.82070   Biso      1.000     C          -0.20215  
         C15       1.0000    0.90910   0.26540   0.76230   Biso      1.000     C          0.134903  
         C16       1.0000    0.90370   0.34760   0.72000   Biso      1.000     C          -0.181471           
         C17       1.0000    0.60600   0.24590   0.08560   Biso      1.000     C          -0.10088899999999999          
         C18       1.0000    0.65240   0.28000   0.09630   Biso      1.000     C          -0.18148  
         C19       1.0000    0.73460   0.23770   0.09090   Biso      1.000     C          0.134944  
         C20       1.0000    0.84870   0.23680   0.20210   Biso      1.000     C          0.254878  
         C21       1.0000    0.30420   0.15640   0.87980   Biso      1.000     C          -0.230681           
         C22       1.0000    0.23680   0.20210   0.84870   Biso      1.000     C          0.254878  
         C23       1.0000    0.17930   0.27330   0.86770   Biso      1.000     C          -0.202157           
         C24       1.0000    0.23770   0.09090   0.73460   Biso      1.000     C          0.134902  
         C25       1.0000    0.28000   0.09630   0.65240   Biso      1.000     C          -0.18147  
         C26       1.0000    0.24590   0.08560   0.60600   Biso      1.000     C          -0.10090700000000001          
         C27       1.0000    0.13200   0.06830   0.72280   Biso      1.000     C          -0.089156           
         C28       1.0000    0.91440   0.39400   0.75410   Biso      1.000     C          -0.10090199999999999          
         C29       1.0000    0.16730   0.07470   0.76900   Biso      1.000     C          -0.146653           
         C30       1.0000    0.13150   0.07120   0.59080   Biso      1.000     C          0.60049   
         C31       1.0000    0.28210   0.10990   0.77110   Biso      1.000     C          -0.088171           
         C32       1.0000    0.93980   0.12470   0.37940   Biso      1.000     C          0.682834  
         C33       1.0000    0.91654   0.18944   0.30144   Biso      1.000     C          -0.010536           
         C34       1.0000    0.94910   0.25650   0.25570   Biso      1.000     C          -0.145258           
         C35       1.0000    0.92949   0.31289   0.18439   Biso      1.000     C          0.001771  
         C36       1.0000    0.87980   0.30420   0.15640   Biso      1.000     C          -0.230675           
         C37       1.0000    0.38209   0.13719   0.96539   Biso      1.000     C          0.66976   
         C38       1.0000    0.31289   0.18439   0.92949   Biso      1.000     C          0.001775  
         C39       1.0000    0.92350   0.35790   0.83090   Biso      1.000     C          -0.018941999999999997         
         C40       1.0000    0.92530   0.23100   0.83270   Biso      1.000     C          -0.14665699999999998          
         C41       1.0000    0.08346   0.81056   0.69856   Biso      1.000     C          -0.01054  
         C42       1.0000    0.05090   0.74350   0.74430   Biso      1.000     C          -0.145258           
         C43       1.0000    0.07051   0.68711   0.81561   Biso      1.000     C          0.001771  
         C44       1.0000    0.12020   0.69580   0.84360   Biso      1.000     C          -0.230675           
         C45       1.0000    0.15130   0.76320   0.79790   Biso      1.000     C          0.25487600000000005           
         C46       1.0000    0.13230   0.82070   0.72670   Biso      1.000     C          -0.202153           
         C47       1.0000    0.26540   0.76230   0.90910   Biso      1.000     C          0.134903  
         C48       1.0000    0.34760   0.72000   0.90370   Biso      1.000     C          -0.181471           
         C49       1.0000    0.39400   0.75410   0.91440   Biso      1.000     C          -0.10090199999999999          
         C50       1.0000    0.35790   0.83090   0.92350   Biso      1.000     C          -0.018941999999999997         
         C51       1.0000    0.27720   0.86800   0.93170   Biso      1.000     C          -0.089115           
         C52       1.0000    0.23100   0.83270   0.92530   Biso      1.000     C          -0.14665799999999998          
         C53       1.0000    0.03461   0.61791   0.86281   Biso      1.000     C          0.66976   
         C54       1.0000    0.40920   0.86850   0.92880   Biso      1.000     C          0.600494  
         C55       1.0000    0.22890   0.71790   0.89010   Biso      1.000     C          -0.088172           
         C56       1.0000    0.06020   0.87530   0.62060   Biso      1.000     C          0.6828350000000001  
         C57       1.0000    0.71790   0.89010   0.22890   Biso      1.000     C          -0.088171           
         C58       1.0000    0.86850   0.92880   0.40920   Biso      1.000     C          0.600494  
         C59       1.0000    0.61791   0.86281   0.03461   Biso      1.000     C          0.66976   
         C60       1.0000    0.86281   0.03461   0.61791   Biso      1.000     C          0.66976   
         C61       1.0000    0.92880   0.40920   0.86850   Biso      1.000     C          0.600494  
         C62       1.0000    0.89010   0.22890   0.71790   Biso      1.000     C          -0.088171           
         C63       1.0000    0.87530   0.62060   0.06020   Biso      1.000     C          0.682834  
         C64       1.0000    0.81056   0.69856   0.08346   Biso      1.000     C          -0.01054  
         C65       1.0000    0.74350   0.74430   0.05090   Biso      1.000     C          -0.145258           
         C66       1.0000    0.68711   0.81561   0.07051   Biso      1.000     C          0.001771  
         C67       1.0000    0.93170   0.27720   0.86800   Biso      1.000     C          -0.089115           
         C68       1.0000    0.69580   0.84360   0.12020   Biso      1.000     C          -0.230674           
         C69       1.0000    0.82070   0.72670   0.13230   Biso      1.000     C          -0.202155           
         C70       1.0000    0.76230   0.90910   0.26540   Biso      1.000     C          0.134903  
         C71       1.0000    0.72000   0.90370   0.34760   Biso      1.000     C          -0.181471           
         C72       1.0000    0.75410   0.91440   0.39400   Biso      1.000     C          -0.10090199999999999          
         C73       1.0000    0.83090   0.92350   0.35790   Biso      1.000     C          -0.018941999999999997         
         C74       1.0000    0.86800   0.93170   0.27720   Biso      1.000     C          -0.089115           
         C75       1.0000    0.83270   0.92530   0.23100   Biso      1.000     C          -0.14665699999999998          
         C76       1.0000    0.76320   0.79790   0.15130   Biso      1.000     C          0.254879  
         C77       1.0000    0.25650   0.25570   0.94910   Biso      1.000     C          -0.145256           
         C78       1.0000    0.16910   0.07650   0.64210   Biso      1.000     C          -0.0189   
         C79       1.0000    0.12470   0.37940   0.93980   Biso      1.000     C          0.682834  
         C80       1.0000    0.37940   0.93980   0.12470   Biso      1.000     C          0.6828350000000001  
         C81       1.0000    0.30144   0.91654   0.18944   Biso      1.000     C          -0.01054  
         C82       1.0000    0.25570   0.94910   0.25650   Biso      1.000     C          -0.145258           
         C83       1.0000    0.15640   0.87980   0.30420   Biso      1.000     C          -0.23068200000000003          
         C84       1.0000    0.20210   0.84870   0.23680   Biso      1.000     C          0.254874  
         C85       1.0000    0.27330   0.86770   0.17930   Biso      1.000     C          -0.202151           
         C86       1.0000    0.09090   0.73460   0.23770   Biso      1.000     C          0.134903  
         C87       1.0000    0.09630   0.65240   0.28000   Biso      1.000     C          -0.181471           
         C88       1.0000    0.18439   0.92949   0.31289   Biso      1.000     C          0.001777  
         C89       1.0000    0.08560   0.60600   0.24590   Biso      1.000     C          -0.10090199999999999          
         C90       1.0000    0.07650   0.64210   0.16910   Biso      1.000     C          -0.018941999999999997         
         C91       1.0000    0.06830   0.72280   0.13200   Biso      1.000     C          -0.089115           
         C92       1.0000    0.07470   0.76900   0.16730   Biso      1.000     C          -0.14665799999999998          
         C93       1.0000    0.13719   0.96539   0.38209   Biso      1.000     C          0.66976   
         C94       1.0000    0.07120   0.59080   0.13150   Biso      1.000     C          0.600494  
         C95       1.0000    0.10990   0.77110   0.28210   Biso      1.000     C          -0.088171           
         C96       1.0000    0.18944   0.30144   0.91654   Biso      1.000     C          -0.010536           
         H1        1.0000    0.14000   0.06750   0.82540   Biso      1.000     H          0.11580499999999999           
         H2        1.0000    0.30850   0.06010   0.80890   Biso      1.000     H          0.111036  
         H3        1.0000    0.32320   0.13660   0.72790   Biso      1.000     H          0.11168900000000001           
         H4        1.0000    0.98350   0.26260   0.27340   Biso      1.000     H          0.13034300000000001           
         H5        1.0000    0.86720   0.34240   0.10800   Biso      1.000     H          0.125054  
         H6        1.0000    0.74900   0.08120   0.05780   Biso      1.000     H          0.11418099999999999           
         H7        1.0000    0.62700   0.33060   0.10710   Biso      1.000     H          0.113099  
         H8        1.0000    0.55160   0.27610   0.08490   Biso      1.000     H          0.11858099999999999           
         H9        1.0000    0.82540   0.14000   0.06750   Biso      1.000     H          0.115808  
         H10       1.0000    0.08120   0.05780   0.74900   Biso      1.000     H          0.114184  
         H11       1.0000    0.84770   0.13400   0.30200   Biso      1.000     H          0.150738  
         H12       1.0000    0.27610   0.08490   0.55160   Biso      1.000     H          0.11858199999999999           
         H13       1.0000    0.05780   0.74900   0.08120   Biso      1.000     H          0.11418199999999999           
         H14       1.0000    0.13400   0.30200   0.84770   Biso      1.000     H          0.15073699999999998           
         H15       1.0000    0.34240   0.10800   0.86720   Biso      1.000     H          0.125054  
         H16       1.0000    0.26260   0.27340   0.98350   Biso      1.000     H          0.13034300000000001           
         H17       1.0000    0.13660   0.72790   0.32320   Biso      1.000     H          0.11168900000000001           
         H18       1.0000    0.06010   0.80890   0.30850   Biso      1.000     H          0.111036  
         H19       1.0000    0.06750   0.82540   0.14000   Biso      1.000     H          0.11580499999999999           
         H20       1.0000    0.72790   0.32320   0.13660   Biso      1.000     H          0.11168900000000001           
         H21       1.0000    0.08490   0.55160   0.27610   Biso      1.000     H          0.11858199999999999           
         H22       1.0000    0.10710   0.62700   0.33060   Biso      1.000     H          0.113098  
         H23       1.0000    0.30200   0.84770   0.13400   Biso      1.000     H          0.15073699999999998           
         H24       1.0000    0.10800   0.86720   0.34240   Biso      1.000     H          0.125054  
         H25       1.0000    0.27340   0.98350   0.26260   Biso      1.000     H          0.13034300000000001           
         H26       1.0000    0.33060   0.10710   0.62700   Biso      1.000     H          0.113098  
         H27       1.0000    0.72660   0.01650   0.73740   Biso      1.000     H          0.13034300000000001           
         H28       1.0000    0.80890   0.30850   0.06010   Biso      1.000     H          0.111036  
         H29       1.0000    0.69800   0.15230   0.86600   Biso      1.000     H          0.15073699999999998           
         H30       1.0000    0.27210   0.67680   0.86340   Biso      1.000     H          0.11168900000000001           
         H31       1.0000    0.89200   0.13280   0.65760   Biso      1.000     H          0.125054  
         H32       1.0000    0.17460   0.86000   0.93250   Biso      1.000     H          0.11580499999999999           
         H33       1.0000    0.25100   0.91880   0.94220   Biso      1.000     H          0.11418099999999999           
         H34       1.0000    0.44840   0.72390   0.91510   Biso      1.000     H          0.11858199999999999           
         H35       1.0000    0.37300   0.66940   0.89290   Biso      1.000     H          0.113098  
         H36       1.0000    0.15230   0.86600   0.69800   Biso      1.000     H          0.15073699999999998           
         H37       1.0000    0.13280   0.65760   0.89200   Biso      1.000     H          0.125054  
         H38       1.0000    0.01650   0.73740   0.72660   Biso      1.000     H          0.13034300000000001           
         H39       1.0000    0.67680   0.86340   0.27210   Biso      1.000     H          0.11168900000000001           
         H40       1.0000    0.69150   0.93990   0.19110   Biso      1.000     H          0.111036  
         H41       1.0000    0.86000   0.93250   0.17460   Biso      1.000     H          0.11580499999999999           
         H42       1.0000    0.19110   0.69150   0.93990   Biso      1.000     H          0.111036  
         H43       1.0000    0.72390   0.91510   0.44840   Biso      1.000     H          0.11858199999999999           
         H44       1.0000    0.91880   0.94220   0.25100   Biso      1.000     H          0.11418099999999999           
         H45       1.0000    0.89290   0.37300   0.66940   Biso      1.000     H          0.113098  
         H46       1.0000    0.94220   0.25100   0.91880   Biso      1.000     H          0.11418199999999999           
         H47       1.0000    0.93250   0.17460   0.86000   Biso      1.000     H          0.11580599999999999           
         H48       1.0000    0.93990   0.19110   0.69150   Biso      1.000     H          0.111036  
         H49       1.0000    0.91510   0.44840   0.72390   Biso      1.000     H          0.11858199999999999           
         H50       1.0000    0.73740   0.72660   0.01650   Biso      1.000     H          0.13034300000000001           
         H51       1.0000    0.65760   0.89200   0.13280   Biso      1.000     H          0.125054  
         H52       1.0000    0.86600   0.69800   0.15230   Biso      1.000     H          0.15073699999999998           
         H53       1.0000    0.66940   0.89290   0.37300   Biso      1.000     H          0.113098  
         H54       1.0000    0.86340   0.27210   0.67680   Biso      1.000     H          0.11168900000000001           
         O1        1.0000    0.52031   0.17521   0.06141   Biso      1.000     O          -0.6613979999999999           
         O2        1.0000    0.83080   0.18290   0.79170   Biso      1.000     O          -0.226298           
         O3        1.0000    0.81710   0.20830   0.16920   Biso      1.000     O          -0.226298           
         O4        1.0000    0.58017   0.09457   0.92987   Biso      1.000     O          -0.630898           
         O5        1.0000    0.60455   0.00725   0.86765   Biso      1.000     O          -0.717121           
         O6        1.0000    0.83485   0.99265   0.60725   Biso      1.000     O          -0.627985           
         O7        1.0000    0.93202   0.04542   0.57122   Biso      1.000     O          -0.758931           
         O8        1.0000    0.92192   0.38142   0.94342   Biso      1.000     O          -0.661938           
         O9        1.0000    0.93859   0.47969   0.82479   Biso      1.000     O          -0.6613979999999999           
         O10       1.0000    0.92987   0.58017   0.09457   Biso      1.000     O          -0.630898           
         O11       1.0000    0.38142   0.94342   0.92192   Biso      1.000     O          -0.661938           
         O12       1.0000    0.60725   0.83485   0.99265   Biso      1.000     O          -0.627985           
         O13       1.0000    0.57122   0.93202   0.04542   Biso      1.000     O          -0.758931           
         O14       1.0000    0.94342   0.92192   0.38142   Biso      1.000     O          -0.661938           
         O15       1.0000    0.82479   0.93859   0.47969   Biso      1.000     O          -0.6613979999999999           
         O16       1.0000    0.04542   0.57122   0.93202   Biso      1.000     O          -0.758931           
         O17       1.0000    0.99265   0.60725   0.83485   Biso      1.000     O          -0.627985           
         O18       1.0000    0.00725   0.86765   0.60455   Biso      1.000     O          -0.717121           
         O19       1.0000    0.09457   0.92987   0.58017   Biso      1.000     O          -0.630898           
         O20       1.0000    0.61858   0.05658   0.07808   Biso      1.000     O          -0.661939           
         O21       1.0000    0.79170   0.83080   0.18290   Biso      1.000     O          -0.2263   
         O22       1.0000    0.86765   0.60455   0.00725   Biso      1.000     O          -0.717121           
         O23       1.0000    0.95458   0.42878   0.06798   Biso      1.000     O          -0.758931           
         O24       1.0000    0.18290   0.79170   0.83080   Biso      1.000     O          -0.22629899999999997          
         O25       1.0000    0.99275   0.13235   0.39545   Biso      1.000     O          -0.717121           
         O26       1.0000    0.47969   0.82479   0.93859   Biso      1.000     O          -0.6613979999999999           
         O27       1.0000    0.41983   0.90543   0.07013   Biso      1.000     O          -0.630898           
         O28       1.0000    0.39545   0.99275   0.13235   Biso      1.000     O          -0.717121           
         O29       1.0000    0.16515   0.00735   0.39275   Biso      1.000     O          -0.627985           
         O30       1.0000    0.06798   0.95458   0.42878   Biso      1.000     O          -0.758931           
         O31       1.0000    0.00735   0.39275   0.16515   Biso      1.000     O          -0.627985           
         O32       1.0000    0.06141   0.52031   0.17521   Biso      1.000     O          -0.6613979999999999           
         O33       1.0000    0.16920   0.81710   0.20830   Biso      1.000     O          -0.226298           
         O34       1.0000    0.07808   0.61858   0.05658   Biso      1.000     O          -0.661938           
         O35       1.0000    0.13235   0.39545   0.99275   Biso      1.000     O          -0.717121           
         O36       1.0000    0.39275   0.16515   0.00735   Biso      1.000     O          -0.627985           
         O37       1.0000    0.42878   0.06798   0.95458   Biso      1.000     O          -0.758931           
         O38       1.0000    0.05658   0.07808   0.61858   Biso      1.000     O          -0.661938           
         O39       1.0000    0.17521   0.06141   0.52031   Biso      1.000     O          -0.6613979999999999           
         O40       1.0000    0.20830   0.16920   0.81710   Biso      1.000     O          -0.2263   
         O41       1.0000    0.90543   0.07013   0.41983   Biso      1.000     O          -0.630898           
         O42       1.0000    0.07013   0.41983   0.90543   Biso      1.000     O          -0.630898           
         Tb1       1.0000    0.05947   0.06695   0.49565   Biso      1.000     Tb          2.063291  
         Tb2       1.0000    0.06695   0.49565   0.05947   Biso      1.000     Tb          2.0632900000000003  
         Tb3       1.0000    0.49565   0.05947   0.06695   Biso      1.000     Tb          2.063291  
         Tb4       1.0000    0.94053   0.93305   0.50435   Biso      1.000     Tb          2.0632900000000003  
         Tb5       1.0000    0.93305   0.50435   0.94053   Biso      1.000     Tb          2.0632900000000003  
         Tb6       1.0000    0.50435   0.94053   0.93305   Biso      1.000     Tb          2.063291 