
##########################################################################
#               Crystallographic Information Format file
#               Produced by PyCifRW module
#
#  This is a CIF file.  CIF has been adopted by the International
#  Union of Crystallography as the standard for data archiving and
#  transmission.
#
#  For information on this file format, follow the CIF links at
#  http://www.iucr.org
##########################################################################

data_image0

_cell_length_a                          6.5568
_cell_length_b                          15.078
_cell_length_c                          20.543
_cell_angle_alpha                       90
_cell_angle_beta                        90
_cell_angle_gamma                       90
_symmetry_space_group_name_H-M          'P 1'
_symmetry_int_tables_number             1
loop_
  _symmetry_equiv_pos_as_xyz
         'x, y, z' 
loop_
  _atom_site_label
  _atom_site_occupancy
  _atom_site_fract_x
  _atom_site_fract_y
  _atom_site_fract_z
  _atom_site_thermal_displace_type
  _atom_site_B_iso_or_equiv
  _atom_site_type_symbol
  _atom_site_charge
         C1        1.0000    0.98550   0.29500   0.82768   Biso      1.000     C          -0.048902999999999995         
         C2        1.0000    0.10000   0.54770   0.44790   Biso      1.000     C          -0.341972           
         C3        1.0000    0.16170   0.63700   0.47513   Biso      1.000     C          -0.154087           
         C4        1.0000    0.30510   0.62830   0.53403   Biso      1.000     C          -0.18571400000000002          
         C5        1.0000    0.50760   0.58490   0.51773   Biso      1.000     C          -0.170765           
         C6        1.0000    0.59240   0.51690   0.62668   Biso      1.000     C          -0.33715100000000003          
         C7        1.0000    0.74050   0.50789   0.68352   Biso      1.000     C          0.633466  
         C8        1.0000    0.55020   0.84570   0.13326   Biso      1.000     C          -0.007687           
         C9        1.0000    0.70480   0.78970   0.14199   Biso      1.000     C          -0.14344300000000001          
         C10       1.0000    0.68060   0.88360   0.22810   Biso      1.000     C          0.10691300000000001           
         C11       1.0000    0.93270   0.76030   0.24720   Biso      1.000     C          -0.11638299999999999          
         C12       1.0000    0.13790   0.76570   0.21200   Biso      1.000     C          -0.124002           
         C13       1.0000    0.38090   0.76370   0.30446   Biso      1.000     C          -0.10448900000000001          
         C14       1.0000    0.51450   0.70500   0.32768   Biso      1.000     C          -0.048868           
         C15       1.0000    0.34810   0.64010   0.25390   Biso      1.000     C          0.085772  
         C16       1.0000    0.56550   0.44770   0.89697   Biso      1.000     C          0.6614220000000001  
         C17       1.0000    0.40000   0.45230   0.94790   Biso      1.000     C          -0.341972           
         C18       1.0000    0.33830   0.36300   0.97513   Biso      1.000     C          -0.154087           
         C19       1.0000    0.19490   0.37170   0.03403   Biso      1.000     C          -0.18571400000000002          
         C20       1.0000    0.99240   0.41510   0.01773   Biso      1.000     C          -0.170765           
         C21       1.0000    0.84280   0.41970   0.07468   Biso      1.000     C          -0.15243299999999999          
         C22       1.0000    0.90760   0.48310   0.12668   Biso      1.000     C          -0.33715100000000003          
         C23       1.0000    0.75950   0.49211   0.18352   Biso      1.000     C          0.633465  
         C24       1.0000    0.94980   0.15430   0.63326   Biso      1.000     C          -0.0076879999999999995        
         C25       1.0000    0.79520   0.21030   0.64199   Biso      1.000     C          -0.14344300000000001          
         C26       1.0000    0.81940   0.11640   0.72810   Biso      1.000     C          0.106912  
         C27       1.0000    0.56730   0.23970   0.74720   Biso      1.000     C          -0.11638299999999999          
         C28       1.0000    0.36210   0.23430   0.71200   Biso      1.000     C          -0.124003           
         C29       1.0000    0.11910   0.23630   0.80446   Biso      1.000     C          -0.10445399999999999          
         C30       1.0000    0.15190   0.35990   0.75390   Biso      1.000     C          0.085772  
         C31       1.0000    0.93450   0.55230   0.39697   Biso      1.000     C          0.66142   
         C32       1.0000    0.84810   0.85990   0.74610   Biso      1.000     C          0.085772  
         C33       1.0000    0.65720   0.58030   0.57468   Biso      1.000     C          -0.15243299999999999          
         C34       1.0000    0.88090   0.73630   0.69554   Biso      1.000     C          -0.10448900000000001          
         C35       1.0000    0.06550   0.05230   0.10303   Biso      1.000     C          0.661421  
         C36       1.0000    0.90000   0.04770   0.05210   Biso      1.000     C          -0.341973           
         C37       1.0000    0.83830   0.13700   0.02487   Biso      1.000     C          -0.154087           
         C38       1.0000    0.69490   0.12830   0.96597   Biso      1.000     C          -0.18571400000000002          
         C39       1.0000    0.49240   0.08490   0.98227   Biso      1.000     C          -0.170765           
         C40       1.0000    0.34280   0.08030   0.92532   Biso      1.000     C          -0.152434           
         C41       1.0000    0.40760   0.01690   0.87332   Biso      1.000     C          -0.33715100000000003          
         C42       1.0000    0.25950   0.00789   0.81648   Biso      1.000     C          0.633465  
         C43       1.0000    0.44980   0.34570   0.36674   Biso      1.000     C          -0.0076879999999999995        
         C44       1.0000    0.01450   0.79500   0.67232   Biso      1.000     C          -0.048868           
         C45       1.0000    0.31940   0.38360   0.27190   Biso      1.000     C          0.106912  
         C46       1.0000    0.06730   0.26030   0.25280   Biso      1.000     C          -0.11638299999999999          
         C47       1.0000    0.86210   0.26570   0.28800   Biso      1.000     C          -0.124002           
         C48       1.0000    0.61910   0.26370   0.19554   Biso      1.000     C          -0.10448900000000001          
         C49       1.0000    0.48550   0.20500   0.17232   Biso      1.000     C          -0.048867           
         C50       1.0000    0.29520   0.28970   0.35801   Biso      1.000     C          -0.14344300000000001          
         C51       1.0000    0.43450   0.94770   0.60303   Biso      1.000     C          0.661421  
         C52       1.0000    0.65190   0.14010   0.24610   Biso      1.000     C          0.085772  
         C53       1.0000    0.43270   0.73970   0.75280   Biso      1.000     C          -0.11638299999999999          
         C54       1.0000    0.18060   0.61640   0.77190   Biso      1.000     C          0.10691300000000001           
         C55       1.0000    0.20480   0.71030   0.85801   Biso      1.000     C          -0.143478           
         C56       1.0000    0.05020   0.65430   0.86674   Biso      1.000     C          -0.00765  
         C57       1.0000    0.24050   0.99211   0.31648   Biso      1.000     C          0.633465  
         C58       1.0000    0.63790   0.73430   0.78800   Biso      1.000     C          -0.124002           
         C59       1.0000    0.15720   0.91970   0.42532   Biso      1.000     C          -0.15243299999999999          
         C60       1.0000    0.00760   0.91510   0.48227   Biso      1.000     C          -0.170765           
         C61       1.0000    0.80510   0.87170   0.46597   Biso      1.000     C          -0.18571400000000002          
         C62       1.0000    0.66170   0.86300   0.52487   Biso      1.000     C          -0.154087           
         C63       1.0000    0.60000   0.95230   0.55210   Biso      1.000     C          -0.341973           
         C64       1.0000    0.09240   0.98310   0.37332   Biso      1.000     C          -0.33715100000000003          
         H1        1.0000    0.54140   0.03640   0.85610   Biso      1.000     H          0.117076  
         H2        1.0000    0.42690   0.95770   0.89320   Biso      1.000     H          0.124105  
         H3        1.0000    0.32870   0.14020   0.90610   Biso      1.000     H          0.084695  
         H4        1.0000    0.20730   0.06220   0.94190   Biso      1.000     H          0.09916   
         H5        1.0000    0.51880   0.02390   0.99800   Biso      1.000     H          0.090568  
         H6        1.0000    0.66860   0.18820   0.94800   Biso      1.000     H          0.090946  
         H7        1.0000    0.76390   0.09300   0.93180   Biso      1.000     H          0.091079  
         H8        1.0000    0.96220   0.16990   0.01160   Biso      1.000     H          0.09424500000000001           
         H9        1.0000    0.77840   0.01910   0.07140   Biso      1.000     H          0.129888  
         H10       1.0000    0.94770   0.00970   0.01590   Biso      1.000     H          0.122053  
         H11       1.0000    0.54990   0.34030   0.39990   Biso      1.000     H          0.12532000000000001           
         H12       1.0000    0.42780   0.11820   0.01830   Biso      1.000     H          0.09841799999999999           
         H13       1.0000    0.26960   0.23390   0.38290   Biso      1.000     H          0.14002799999999999           
         H14       1.0000    0.76930   0.17170   0.05930   Biso      1.000     H          0.08669   
         H15       1.0000    0.05470   0.28710   0.21060   Biso      1.000     H          0.131253  
         H16       1.0000    0.27840   0.48090   0.92860   Biso      1.000     H          0.129888  
         H17       1.0000    0.44770   0.49030   0.98410   Biso      1.000     H          0.122053  
         H18       1.0000    0.29830   0.59680   0.22350   Biso      1.000     H          0.11370599999999999           
         H19       1.0000    0.62060   0.71860   0.35760   Biso      1.000     H          0.116746  
         H20       1.0000    0.36820   0.82730   0.31770   Biso      1.000     H          0.125395  
         H21       1.0000    0.30400   0.41210   0.23040   Biso      1.000     H          0.123884  
         H22       1.0000    0.17200   0.82610   0.20200   Biso      1.000     H          0.12233499999999999           
         H23       1.0000    0.89120   0.69980   0.25300   Biso      1.000     H          0.129168  
         H24       1.0000    0.94530   0.78710   0.28940   Biso      1.000     H          0.131253  
         H25       1.0000    0.69600   0.91210   0.26960   Biso      1.000     H          0.123884  
         H26       1.0000    0.73040   0.73390   0.11710   Biso      1.000     H          0.14002799999999999           
         H27       1.0000    0.45010   0.84030   0.10010   Biso      1.000     H          0.12532000000000001           
         H28       1.0000    0.45860   0.53640   0.64390   Biso      1.000     H          0.117076  
         H29       1.0000    0.57310   0.45770   0.60680   Biso      1.000     H          0.12410399999999999           
         H30       1.0000    0.67130   0.64020   0.59390   Biso      1.000     H          0.084695  
         H31       1.0000    0.46220   0.33010   0.98840   Biso      1.000     H          0.09424500000000001           
         H32       1.0000    0.26930   0.32830   0.94070   Biso      1.000     H          0.08669   
         H33       1.0000    0.16860   0.31180   0.05200   Biso      1.000     H          0.090945  
         H34       1.0000    0.26390   0.40700   0.06820   Biso      1.000     H          0.091079  
         H35       1.0000    0.20170   0.40320   0.72350   Biso      1.000     H          0.11370599999999999           
         H36       1.0000    0.87940   0.28140   0.85760   Biso      1.000     H          0.116748  
         H37       1.0000    0.13180   0.17270   0.81770   Biso      1.000     H          0.125393  
         H38       1.0000    0.37110   0.26660   0.67190   Biso      1.000     H          0.117948  
         H39       1.0000    0.32800   0.17390   0.70200   Biso      1.000     H          0.12233499999999999           
         H40       1.0000    0.60880   0.30020   0.75300   Biso      1.000     H          0.129168  
         H41       1.0000    0.55470   0.21290   0.78940   Biso      1.000     H          0.131253  
         H42       1.0000    0.79270   0.56220   0.55810   Biso      1.000     H          0.09916   
         H43       1.0000    0.80400   0.08790   0.76960   Biso      1.000     H          0.123885  
         H44       1.0000    0.04990   0.15970   0.60010   Biso      1.000     H          0.125319  
         H45       1.0000    0.04140   0.46360   0.14390   Biso      1.000     H          0.117076  
         H46       1.0000    0.92690   0.54230   0.10680   Biso      1.000     H          0.124105  
         H47       1.0000    0.82870   0.35980   0.09390   Biso      1.000     H          0.084695  
         H48       1.0000    0.70730   0.43780   0.05810   Biso      1.000     H          0.09916   
         H49       1.0000    0.01880   0.47610   0.00200   Biso      1.000     H          0.090568  
         H50       1.0000    0.92780   0.38180   0.98170   Biso      1.000     H          0.09841799999999999           
         H51       1.0000    0.76960   0.26610   0.61710   Biso      1.000     H          0.14002799999999999           
         H52       1.0000    0.48120   0.52390   0.50200   Biso      1.000     H          0.090568  
         H53       1.0000    0.12890   0.73340   0.17190   Biso      1.000     H          0.117948  
         H54       1.0000    0.23610   0.59300   0.56820   Biso      1.000     H          0.091079  
         H55       1.0000    0.98120   0.97610   0.49800   Biso      1.000     H          0.090568  
         H56       1.0000    0.07220   0.88180   0.51830   Biso      1.000     H          0.09841799999999999           
         H57       1.0000    0.73610   0.90700   0.43180   Biso      1.000     H          0.091079  
         H58       1.0000    0.83140   0.81180   0.44800   Biso      1.000     H          0.090946  
         H59       1.0000    0.73070   0.82830   0.55930   Biso      1.000     H          0.08669   
         H60       1.0000    0.53780   0.83010   0.51160   Biso      1.000     H          0.09424500000000001           
         H61       1.0000    0.29270   0.93780   0.44190   Biso      1.000     H          0.09916   
         H62       1.0000    0.72160   0.98090   0.57140   Biso      1.000     H          0.129888  
         H63       1.0000    0.70170   0.09680   0.27650   Biso      1.000     H          0.11370599999999999           
         H64       1.0000    0.37940   0.21860   0.14240   Biso      1.000     H          0.116746  
         H65       1.0000    0.63180   0.32730   0.18230   Biso      1.000     H          0.125395  
         H66       1.0000    0.87110   0.23340   0.32810   Biso      1.000     H          0.117947  
         H67       1.0000    0.82800   0.32610   0.29800   Biso      1.000     H          0.12233499999999999           
         H68       1.0000    0.10880   0.19980   0.24700   Biso      1.000     H          0.129168  
         H69       1.0000    0.57220   0.61820   0.48170   Biso      1.000     H          0.09841799999999999           
         H70       1.0000    0.17130   0.85980   0.40610   Biso      1.000     H          0.084695  
         H71       1.0000    0.55230   0.99030   0.51590   Biso      1.000     H          0.122053  
         H72       1.0000    0.95860   0.96360   0.35610   Biso      1.000     H          0.117076  
         H73       1.0000    0.07310   0.04230   0.39320   Biso      1.000     H          0.124106  
         H74       1.0000    0.23070   0.67170   0.44070   Biso      1.000     H          0.086689  
         H75       1.0000    0.03780   0.66990   0.48840   Biso      1.000     H          0.09424500000000001           
         H76       1.0000    0.22160   0.51910   0.42860   Biso      1.000     H          0.129888  
         H77       1.0000    0.05230   0.50970   0.48410   Biso      1.000     H          0.122053  
         H78       1.0000    0.79830   0.90320   0.77650   Biso      1.000     H          0.11370599999999999           
         H79       1.0000    0.12060   0.78140   0.64240   Biso      1.000     H          0.116746  
         H80       1.0000    0.86820   0.67270   0.68230   Biso      1.000     H          0.125395  
         H81       1.0000    0.33140   0.68820   0.55200   Biso      1.000     H          0.090945  
         H82       1.0000    0.67200   0.67390   0.79800   Biso      1.000     H          0.12233499999999999           
         H83       1.0000    0.39120   0.80020   0.74700   Biso      1.000     H          0.129168  
         H84       1.0000    0.44530   0.71290   0.71060   Biso      1.000     H          0.131253  
         H85       1.0000    0.19600   0.58790   0.73040   Biso      1.000     H          0.123884  
         H86       1.0000    0.23040   0.76610   0.88290   Biso      1.000     H          0.140031  
         H87       1.0000    0.95010   0.65970   0.89990   Biso      1.000     H          0.125317  
         H88       1.0000    0.62890   0.76660   0.82810   Biso      1.000     H          0.117948  
         N1        1.0000    0.20380   0.27360   0.75360   Biso      1.000     N          0.07434   
         N2        1.0000    0.52200   0.12314   0.19728   Biso      1.000     N          -0.254112           
         N3        1.0000    0.05500   0.58783   0.82140   Biso      1.000     N          -0.295632           
         N4        1.0000    0.27720   0.69000   0.79110   Biso      1.000     N          0.042718  
         N5        1.0000    0.79620   0.77360   0.74640   Biso      1.000     N          0.07434299999999999           
         N6        1.0000    0.97800   0.87686   0.69728   Biso      1.000     N          -0.254112           
         N7        1.0000    0.55500   0.91217   0.17860   Biso      1.000     N          -0.295628           
         N8        1.0000    0.77720   0.81000   0.20890   Biso      1.000     N          0.042714999999999996          
         N9        1.0000    0.29620   0.72640   0.25360   Biso      1.000     N          0.07434299999999999           
         N10       1.0000    0.22280   0.31000   0.29110   Biso      1.000     N          0.042714999999999996          
         N11       1.0000    0.94500   0.08783   0.67860   Biso      1.000     N          -0.295627           
         N12       1.0000    0.72280   0.19000   0.70890   Biso      1.000     N          0.042714999999999996          
         N13       1.0000    0.02200   0.37686   0.80272   Biso      1.000     N          -0.254108           
         N14       1.0000    0.44500   0.41217   0.32140   Biso      1.000     N          -0.295627           
         N15       1.0000    0.70380   0.22640   0.24640   Biso      1.000     N          0.07434299999999999           
         N16       1.0000    0.47800   0.62314   0.30272   Biso      1.000     N          -0.254112           
         O1        1.0000    0.42640   0.99372   0.32540   Biso      1.000     O          -0.615215           
         O2        1.0000    0.90940   0.61795   0.36342   Biso      1.000     O          -0.5853619999999999           
         O3        1.0000    0.16040   0.99521   0.26055   Biso      1.000     O          -0.586932           
         O4        1.0000    0.07360   0.00628   0.82540   Biso      1.000     O          -0.615215           
         O5        1.0000    0.40940   0.88205   0.63658   Biso      1.000     O          -0.5853619999999999           
         O6        1.0000    0.82270   0.48367   0.38971   Biso      1.000     O          -0.606985           
         O7        1.0000    0.32270   0.01633   0.61029   Biso      1.000     O          -0.606984           
         O8        1.0000    0.33960   0.00479   0.76055   Biso      1.000     O          -0.586933           
         O9        1.0000    0.92640   0.50628   0.67460   Biso      1.000     O          -0.615215           
         O10       1.0000    0.09060   0.11795   0.13658   Biso      1.000     O          -0.5853619999999999           
         O11       1.0000    0.59060   0.38205   0.86342   Biso      1.000     O          -0.585361           
         O12       1.0000    0.67730   0.51633   0.88971   Biso      1.000     O          -0.606985           
         O13       1.0000    0.57360   0.49372   0.17460   Biso      1.000     O          -0.615215           
         O14       1.0000    0.83960   0.49521   0.23945   Biso      1.000     O          -0.586933           
         O15       1.0000    0.17730   0.98367   0.11029   Biso      1.000     O          -0.606984           
         O16       1.0000    0.66040   0.50479   0.73945   Biso      1.000     O          -0.586933           
         Zn1       1.0000    0.35132   0.01362   0.18783   Biso      1.000     Zn          0.751893  
         Zn2       1.0000    0.14868   0.98638   0.68783   Biso      1.000     Zn          0.751894  
         Zn3       1.0000    0.64868   0.51362   0.31217   Biso      1.000     Zn          0.751894  
         Zn4       1.0000    0.85132   0.48638   0.81217   Biso      1.000     Zn          0.751893 