
##########################################################################
#               Crystallographic Information Format file
#               Produced by PyCifRW module
#
#  This is a CIF file.  CIF has been adopted by the International
#  Union of Crystallography as the standard for data archiving and
#  transmission.
#
#  For information on this file format, follow the CIF links at
#  http://www.iucr.org
##########################################################################

data_image0

_cell_length_a                          13.0842
_cell_length_b                          13.0842
_cell_length_c                          19.878
_cell_angle_alpha                       90
_cell_angle_beta                        90
_cell_angle_gamma                       120
_symmetry_space_group_name_H-M          'P 1'
_symmetry_int_tables_number             1
loop_
  _symmetry_equiv_pos_as_xyz
         'x, y, z' 
loop_
  _atom_site_label
  _atom_site_occupancy
  _atom_site_fract_x
  _atom_site_fract_y
  _atom_site_fract_z
  _atom_site_thermal_displace_type
  _atom_site_B_iso_or_equiv
  _atom_site_type_symbol
  _atom_site_charge
         C1        1.0000    0.95730   0.17880   0.41520   Biso      1.000     C          0.20127899999999999           
         C2        1.0000    0.37700   0.46740   0.63370   Biso      1.000     C          0.105677  
         C3        1.0000    0.82120   0.77850   0.08187   Biso      1.000     C          0.20214100000000002           
         C4        1.0000    0.27320   0.35850   0.60230   Biso      1.000     C          0.426624  
         C5        1.0000    0.88080   0.84150   0.13937   Biso      1.000     C          -0.124405           
         C6        1.0000    0.11620   0.35360   0.44940   Biso      1.000     C          0.08229199999999999           
         C7        1.0000    0.12550   0.30530   0.50990   Biso      1.000     C          0.18299200000000002           
         C8        1.0000    0.05020   0.18650   0.52370   Biso      1.000     C          0.001887  
         C9        1.0000    0.96070   0.11920   0.47270   Biso      1.000     C          -0.12241500000000001          
         C10       1.0000    0.81350   0.86370   0.19037   Biso      1.000     C          0.002235  
         C11       1.0000    0.69470   0.82020   0.17657   Biso      1.000     C          0.18508   
         C12       1.0000    0.96140   0.47070   0.46103   Biso      1.000     C          0.076535  
         C13       1.0000    0.64640   0.76260   0.11607   Biso      1.000     C          0.08031100000000001           
         C14       1.0000    0.47700   0.50220   0.58830   Biso      1.000     C          0.026488  
         C15       1.0000    0.10350   0.61500   0.39623   Biso      1.000     C          0.163529  
         C16       1.0000    0.06320   0.66890   0.50453   Biso      1.000     C          0.067195  
         C17       1.0000    0.98150   0.55250   0.51273   Biso      1.000     C          -0.067527           
         C18       1.0000    0.64150   0.91470   0.26897   Biso      1.000     C          0.428993  
         C19       1.0000    0.91080   0.50380   0.57723   Biso      1.000     C          0.47860699999999995           
         C20       1.0000    0.53260   0.90960   0.30037   Biso      1.000     C          0.107045  
         C21       1.0000    0.06400   0.37400   0.73383   Biso      1.000     C          -0.048688           
         C22       1.0000    0.06000   0.26500   0.73083   Biso      1.000     C          0.045439999999999994          
         C23       1.0000    0.95600   0.15700   0.71913   Biso      1.000     C          0.059488  
         C24       1.0000    0.85800   0.16200   0.72003   Biso      1.000     C          -0.090279           
         C25       1.0000    0.86100   0.27800   0.72573   Biso      1.000     C          0.091568  
         C26       1.0000    0.96620   0.38580   0.73253   Biso      1.000     C          0.05779600000000001           
         C27       1.0000    0.97480   0.49780   0.74503   Biso      1.000     C          0.024033000000000002          
         C28       1.0000    0.12850   0.70250   0.44303   Biso      1.000     C          -0.119999           
         C29       1.0000    0.58040   0.61420   0.60080   Biso      1.000     C          0.058252  
         C30       1.0000    0.58300   0.72200   0.60760   Biso      1.000     C          0.094203  
         C31       1.0000    0.69600   0.83800   0.61330   Biso      1.000     C          -0.10344600000000001          
         C32       1.0000    0.04400   0.20100   0.94753   Biso      1.000     C          0.06765   
         C33       1.0000    0.14200   0.30400   0.94663   Biso      1.000     C          -0.101833           
         C34       1.0000    0.13900   0.41700   0.94093   Biso      1.000     C          0.09383   
         C35       1.0000    0.03380   0.41960   0.93413   Biso      1.000     C          0.05798   
         C36       1.0000    0.02520   0.52300   0.92163   Biso      1.000     C          0.02646   
         C37       1.0000    0.09040   0.62300   0.96703   Biso      1.000     C          0.104985  
         C38       1.0000    0.08920   0.59300   0.08943   Biso      1.000     C          0.478361  
         C39       1.0000    0.08530   0.72680   0.93563   Biso      1.000     C          0.427526  
         C40       1.0000    0.01850   0.57100   0.15393   Biso      1.000     C          -0.067337           
         C41       1.0000    0.23740   0.88380   0.78273   Biso      1.000     C          0.082962  
         C42       1.0000    0.17980   0.87450   0.84323   Biso      1.000     C          0.183015  
         C43       1.0000    0.13630   0.94980   0.85703   Biso      1.000     C          0.001836  
         C44       1.0000    0.15850   0.03930   0.80603   Biso      1.000     C          -0.121438           
         C45       1.0000    0.22150   0.04270   0.74853   Biso      1.000     C          0.201471  
         C46       1.0000    0.93680   0.60570   0.16213   Biso      1.000     C          0.067452  
         C47       1.0000    0.49070   0.52930   0.87230   Biso      1.000     C          0.07759500000000001           
         C48       1.0000    0.87150   0.57400   0.22363   Biso      1.000     C          -0.11765999999999999          
         C49       1.0000    0.48850   0.38500   0.93710   Biso      1.000     C          0.161993  
         C50       1.0000    0.42600   0.29750   0.89030   Biso      1.000     C          -0.11791099999999999          
         C51       1.0000    0.39430   0.33110   0.82880   Biso      1.000     C          0.06625299999999999           
         C52       1.0000    0.42900   0.44750   0.82060   Biso      1.000     C          -0.067053           
         C53       1.0000    0.89650   0.51150   0.27043   Biso      1.000     C          0.161254  
         C54       1.0000    0.40700   0.49620   0.75610   Biso      1.000     C          0.47905600000000004           
         C55       1.0000    0.03860   0.50930   0.20563   Biso      1.000     C          0.07771   
         C56       1.0000    0.69000   0.62600   0.59950   Biso      1.000     C          -0.057002           
         C57       1.0000    0.79500   0.73500   0.60250   Biso      1.000     C          0.048639999999999996          
         C58       1.0000    0.79900   0.84300   0.61420   Biso      1.000     C          0.06880900000000001           
         C59       1.0000    0.90960   0.53260   0.69963   Biso      1.000     C          0.10706600000000001           
         C60       1.0000    0.94000   0.20500   0.93583   Biso      1.000     C          0.04816   
         C61       1.0000    0.49780   0.97480   0.25497   Biso      1.000     C          0.023919  
         C62       1.0000    0.38580   0.96620   0.26747   Biso      1.000     C          0.05776799999999999           
         C63       1.0000    0.04270   0.22150   0.25147   Biso      1.000     C          0.201482  
         C64       1.0000    0.55250   0.98150   0.48727   Biso      1.000     C          -0.06754099999999999          
         C65       1.0000    0.52930   0.49070   0.12770   Biso      1.000     C          0.077519  
         C66       1.0000    0.66890   0.06320   0.49547   Biso      1.000     C          0.067254  
         C67       1.0000    0.38500   0.48850   0.06290   Biso      1.000     C          0.162081  
         C68       1.0000    0.29750   0.42600   0.10970   Biso      1.000     C          -0.117808           
         C69       1.0000    0.33110   0.39430   0.17120   Biso      1.000     C          0.06614099999999999           
         C70       1.0000    0.44750   0.42900   0.17940   Biso      1.000     C          -0.067098           
         C71       1.0000    0.70250   0.12850   0.55697   Biso      1.000     C          -0.119966           
         C72       1.0000    0.49620   0.40700   0.24390   Biso      1.000     C          0.47905   
         C73       1.0000    0.61500   0.10350   0.60377   Biso      1.000     C          0.16368   
         C74       1.0000    0.62600   0.69000   0.40050   Biso      1.000     C          -0.056001999999999996         
         C75       1.0000    0.03930   0.15850   0.19397   Biso      1.000     C          -0.121332           
         C76       1.0000    0.73500   0.79500   0.39750   Biso      1.000     C          0.04825   
         C77       1.0000    0.83800   0.69600   0.38670   Biso      1.000     C          -0.101727           
         C78       1.0000    0.72200   0.58300   0.39240   Biso      1.000     C          0.093668  
         C79       1.0000    0.61420   0.58040   0.39920   Biso      1.000     C          0.058227  
         C80       1.0000    0.50220   0.47700   0.41170   Biso      1.000     C          0.026409  
         C81       1.0000    0.46740   0.37700   0.36630   Biso      1.000     C          0.10563499999999999           
         C82       1.0000    0.47070   0.96140   0.53897   Biso      1.000     C          0.076529  
         C83       1.0000    0.35850   0.27320   0.39770   Biso      1.000     C          0.42660299999999995           
         C84       1.0000    0.35360   0.11620   0.55060   Biso      1.000     C          0.08234   
         C85       1.0000    0.30530   0.12550   0.49010   Biso      1.000     C          0.182954  
         C86       1.0000    0.18650   0.05020   0.47630   Biso      1.000     C          0.001971  
         C87       1.0000    0.11920   0.96070   0.52730   Biso      1.000     C          -0.122531           
         C88       1.0000    0.17880   0.95730   0.58480   Biso      1.000     C          0.20119700000000001           
         C89       1.0000    0.84300   0.79900   0.38580   Biso      1.000     C          0.067383  
         C90       1.0000    0.91470   0.64150   0.73103   Biso      1.000     C          0.429041  
         C91       1.0000    0.94980   0.13630   0.14297   Biso      1.000     C          0.001773  
         C92       1.0000    0.88380   0.23740   0.21727   Biso      1.000     C          0.082924  
         C93       1.0000    0.76260   0.64640   0.88393   Biso      1.000     C          0.080307  
         C94       1.0000    0.82020   0.69470   0.82343   Biso      1.000     C          0.185133  
         C95       1.0000    0.86370   0.81350   0.80963   Biso      1.000     C          0.002055  
         C96       1.0000    0.84150   0.88080   0.86063   Biso      1.000     C          -0.12458399999999999          
         C97       1.0000    0.77850   0.82120   0.91813   Biso      1.000     C          0.202125  
         C98       1.0000    0.27800   0.86100   0.27427   Biso      1.000     C          0.091136  
         C99       1.0000    0.50930   0.03860   0.79437   Biso      1.000     C          0.07772000000000001           
         C100      1.0000    0.16200   0.85800   0.27997   Biso      1.000     C          -0.089212           
         C101      1.0000    0.51150   0.89650   0.72957   Biso      1.000     C          0.161368  
         C102      1.0000    0.57400   0.87150   0.77637   Biso      1.000     C          -0.117565           
         C103      1.0000    0.60570   0.93680   0.83787   Biso      1.000     C          0.06742100000000001           
         C104      1.0000    0.57100   0.01850   0.84607   Biso      1.000     C          -0.067313           
         C105      1.0000    0.87450   0.17980   0.15677   Biso      1.000     C          0.182999  
         C106      1.0000    0.15700   0.95600   0.28087   Biso      1.000     C          0.058852999999999996          
         C107      1.0000    0.26500   0.06000   0.26917   Biso      1.000     C          0.045176999999999995          
         C108      1.0000    0.31000   0.93600   0.06717   Biso      1.000     C          -0.055451           
         C109      1.0000    0.20500   0.94000   0.06417   Biso      1.000     C          0.047582  
         C110      1.0000    0.20100   0.04400   0.05247   Biso      1.000     C          0.065478  
         C111      1.0000    0.30400   0.14200   0.05337   Biso      1.000     C          -0.098955           
         C112      1.0000    0.41700   0.13900   0.05907   Biso      1.000     C          0.092967  
         C113      1.0000    0.41960   0.03380   0.06587   Biso      1.000     C          0.0579    
         C114      1.0000    0.52300   0.02520   0.07837   Biso      1.000     C          0.026195999999999997          
         C115      1.0000    0.62300   0.09040   0.03297   Biso      1.000     C          0.10500899999999999           
         C116      1.0000    0.37400   0.06400   0.26617   Biso      1.000     C          -0.04824  
         C117      1.0000    0.72680   0.08530   0.06437   Biso      1.000     C          0.42753599999999997           
         C118      1.0000    0.50380   0.91080   0.42277   Biso      1.000     C          0.478604  
         C119      1.0000    0.59300   0.08920   0.91057   Biso      1.000     C          0.47835500000000003           
         C120      1.0000    0.93600   0.31000   0.93283   Biso      1.000     C          -0.056969000000000006         
         Cu1       1.0000    0.61840   0.61840   0.00000   Biso      1.000     Cu          0.63451   
         Cu2       1.0000    0.00000   0.38160   0.33333   Biso      1.000     Cu          0.634463  
         Cu3       1.0000    0.38160   0.00000   0.66667   Biso      1.000     Cu          0.634478  
         N1        1.0000    0.28890   0.02910   0.59370   Biso      1.000     N          -0.239851           
         N2        1.0000    0.97090   0.25980   0.26037   Biso      1.000     N          -0.239629           
         N3        1.0000    0.59650   0.03180   0.96627   Biso      1.000     N          -0.332996           
         N4        1.0000    0.50010   0.52030   0.07100   Biso      1.000     N          -0.248313           
         N5        1.0000    0.47970   0.97980   0.73767   Biso      1.000     N          -0.24873699999999999          
         N6        1.0000    0.74020   0.71110   0.92703   Biso      1.000     N          -0.240355           
         N7        1.0000    0.83610   0.61650   0.78103   Biso      1.000     N          -0.359245           
         N8        1.0000    0.03180   0.59650   0.03373   Biso      1.000     N          -0.333077           
         N9        1.0000    0.96820   0.56470   0.63293   Biso      1.000     N          -0.328152           
         N10       1.0000    0.43530   0.40350   0.29960   Biso      1.000     N          -0.33325  
         N11       1.0000    0.61650   0.83610   0.21897   Biso      1.000     N          -0.35938000000000003          
         N12       1.0000    0.56470   0.96820   0.36707   Biso      1.000     N          -0.328094           
         N13       1.0000    0.02020   0.49990   0.40433   Biso      1.000     N          -0.24829099999999998          
         N14       1.0000    0.21960   0.38350   0.55230   Biso      1.000     N          -0.355041           
         N15       1.0000    0.49990   0.02020   0.59567   Biso      1.000     N          -0.248306           
         N16       1.0000    0.71110   0.74020   0.07297   Biso      1.000     N          -0.240396           
         N17       1.0000    0.40350   0.43530   0.70040   Biso      1.000     N          -0.333277           
         N18       1.0000    0.97980   0.47970   0.26233   Biso      1.000     N          -0.248731           
         N19       1.0000    0.52030   0.50010   0.92900   Biso      1.000     N          -0.24829400000000001          
         N20       1.0000    0.25980   0.97090   0.73963   Biso      1.000     N          -0.239632           
         N21       1.0000    0.16390   0.78040   0.88563   Biso      1.000     N          -0.352619           
         N22       1.0000    0.38350   0.21960   0.44770   Biso      1.000     N          -0.354953           
         N23       1.0000    0.02910   0.28890   0.40630   Biso      1.000     N          -0.239867           
         N24       1.0000    0.78040   0.16390   0.11437   Biso      1.000     N          -0.352564           
         O1        1.0000    0.57660   0.38810   0.24340   Biso      1.000     O          -0.39744  
         O2        1.0000    0.25710   0.23810   0.37730   Biso      1.000     O          -0.360387           
         O3        1.0000    0.01900   0.76190   0.95603   Biso      1.000     O          -0.359589           
         O4        1.0000    0.76190   0.01900   0.04397   Biso      1.000     O          -0.35965199999999997          
         O5        1.0000    0.61190   0.18850   0.91007   Biso      1.000     O          -0.39619  
         O6        1.0000    0.74290   0.98100   0.28937   Biso      1.000     O          -0.366154           
         O7        1.0000    0.81150   0.42340   0.57673   Biso      1.000     O          -0.394371           
         O8        1.0000    0.23810   0.25710   0.62270   Biso      1.000     O          -0.360489           
         O9        1.0000    0.38810   0.57660   0.75660   Biso      1.000     O          -0.3974   
         O10       1.0000    0.18850   0.61190   0.08993   Biso      1.000     O          -0.396307           
         O11       1.0000    0.42340   0.81150   0.42327   Biso      1.000     O          -0.394381           
         O12       1.0000    0.98100   0.74290   0.71063   Biso      1.000     O          -0.366228 