
##########################################################################
#               Crystallographic Information Format file
#               Produced by PyCifRW module
#
#  This is a CIF file.  CIF has been adopted by the International
#  Union of Crystallography as the standard for data archiving and
#  transmission.
#
#  For information on this file format, follow the CIF links at
#  http://www.iucr.org
##########################################################################

data_image0

_cell_length_a                          13.386
_cell_length_b                          13.386
_cell_length_c                          14.4646
_cell_angle_alpha                       90
_cell_angle_beta                        90
_cell_angle_gamma                       120
_symmetry_space_group_name_H-M          'P 1'
_symmetry_int_tables_number             1
loop_
  _symmetry_equiv_pos_as_xyz
         'x, y, z' 
loop_
  _atom_site_label
  _atom_site_occupancy
  _atom_site_fract_x
  _atom_site_fract_y
  _atom_site_fract_z
  _atom_site_thermal_displace_type
  _atom_site_B_iso_or_equiv
  _atom_site_type_symbol
  _atom_site_charge
         C1        1.0000    0.73110   0.18400   0.57010   Biso      1.000     C          0.649692  
         C2        1.0000    0.90070   0.64720   0.51140   Biso      1.000     C          -0.22697199999999998          
         C3        1.0000    0.81600   0.54710   0.57010   Biso      1.000     C          0.649691  
         C4        1.0000    0.88400   0.55130   0.35990   Biso      1.000     C          -0.242457           
         C5        1.0000    0.87410   0.43770   0.33980   Biso      1.000     C          0.689237  
         C6        1.0000    0.74650   0.09930   0.51140   Biso      1.000     C          -0.226971           
         C7        1.0000    0.66730   0.11600   0.35990   Biso      1.000     C          -0.24245500000000003          
         C8        1.0000    0.56360   0.12590   0.33980   Biso      1.000     C          0.689221  
         C9        1.0000    0.35280   0.25350   0.51140   Biso      1.000     C          -0.226975           
         C10       1.0000    0.45290   0.26890   0.57010   Biso      1.000     C          0.6496970000000001  
         C11       1.0000    0.87410   0.43640   0.83980   Biso      1.000     C          0.689245  
         C12       1.0000    0.44870   0.33270   0.35990   Biso      1.000     C          -0.24245300000000003          
         C13       1.0000    0.25350   0.35280   0.98860   Biso      1.000     C          -0.22697399999999998          
         C14       1.0000    0.26890   0.45290   0.92990   Biso      1.000     C          0.649692  
         C15       1.0000    0.33270   0.44870   0.14010   Biso      1.000     C          -0.242456           
         C16       1.0000    0.43640   0.56230   0.16020   Biso      1.000     C          0.689238  
         C17       1.0000    0.64720   0.90070   0.98860   Biso      1.000     C          -0.226973           
         C18       1.0000    0.54710   0.81600   0.92990   Biso      1.000     C          0.6496930000000001  
         C19       1.0000    0.43770   0.87410   0.16020   Biso      1.000     C          0.689222  
         C20       1.0000    0.09930   0.74650   0.98860   Biso      1.000     C          -0.22697699999999998          
         C21       1.0000    0.18400   0.73110   0.92990   Biso      1.000     C          0.6496970000000001  
         C22       1.0000    0.56230   0.43640   0.33980   Biso      1.000     C          0.689245  
         C23       1.0000    0.11600   0.66730   0.14010   Biso      1.000     C          -0.24245300000000003          
         C24       1.0000    0.88400   0.33270   0.85990   Biso      1.000     C          -0.242452           
         C25       1.0000    0.90070   0.25350   0.01140   Biso      1.000     C          -0.22697699999999998          
         C26       1.0000    0.09930   0.35280   0.48860   Biso      1.000     C          -0.226971           
         C27       1.0000    0.18400   0.45290   0.42990   Biso      1.000     C          0.649692  
         C28       1.0000    0.11600   0.44870   0.64010   Biso      1.000     C          -0.242457           
         C29       1.0000    0.12590   0.56230   0.66020   Biso      1.000     C          0.689238  
         C30       1.0000    0.25350   0.90070   0.48860   Biso      1.000     C          -0.22697199999999998          
         C31       1.0000    0.26890   0.81600   0.42990   Biso      1.000     C          0.6496930000000001  
         C32       1.0000    0.33270   0.88400   0.64010   Biso      1.000     C          -0.24245500000000003          
         C33       1.0000    0.43640   0.87410   0.66020   Biso      1.000     C          0.689221  
         C34       1.0000    0.64720   0.74650   0.48860   Biso      1.000     C          -0.226975           
         C35       1.0000    0.81600   0.26890   0.07010   Biso      1.000     C          0.6496970000000001  
         C36       1.0000    0.54710   0.73110   0.42990   Biso      1.000     C          0.6496970000000001  
         C37       1.0000    0.43770   0.56360   0.66020   Biso      1.000     C          0.689245  
         C38       1.0000    0.74650   0.64720   0.01140   Biso      1.000     C          -0.22697399999999998          
         C39       1.0000    0.73110   0.54710   0.07010   Biso      1.000     C          0.649692  
         C40       1.0000    0.66730   0.55130   0.85990   Biso      1.000     C          -0.242456           
         C41       1.0000    0.56360   0.43770   0.83980   Biso      1.000     C          0.689237  
         C42       1.0000    0.35280   0.09930   0.01140   Biso      1.000     C          -0.22697199999999998          
         C43       1.0000    0.45290   0.18400   0.07010   Biso      1.000     C          0.649692  
         C44       1.0000    0.44870   0.11600   0.85990   Biso      1.000     C          -0.24245300000000003          
         C45       1.0000    0.56230   0.12590   0.83980   Biso      1.000     C          0.689221  
         C46       1.0000    0.55130   0.66730   0.64010   Biso      1.000     C          -0.24245300000000003          
         C47       1.0000    0.12590   0.56360   0.16020   Biso      1.000     C          0.689246  
         C48       1.0000    0.55130   0.88400   0.14010   Biso      1.000     C          -0.242454           
         Cu1       1.0000    0.00000   0.50000   0.00000   Biso      1.000     Cu          0.779721  
         Cu2       1.0000    0.50000   0.00000   0.00000   Biso      1.000     Cu          0.779726  
         Cu3       1.0000    0.50000   0.50000   0.00000   Biso      1.000     Cu          0.779725  
         Cu4       1.0000    0.50000   0.50000   0.50000   Biso      1.000     Cu          0.779722  
         Cu5       1.0000    0.50000   0.00000   0.50000   Biso      1.000     Cu          0.77973   
         Cu6       1.0000    0.00000   0.50000   0.50000   Biso      1.000     Cu          0.779725  
         H1        1.0000    0.31900   0.13940   0.98010   Biso      1.000     H          0.127547  
         H2        1.0000    0.25340   0.29420   0.94910   Biso      1.000     H          0.141308  
         H3        1.0000    0.32650   0.34940   0.42180   Biso      1.000     H          0.258037  
         H4        1.0000    0.39920   0.31530   0.30620   Biso      1.000     H          0.146829  
         H5        1.0000    0.46000   0.26740   0.37040   Biso      1.000     H          0.149604  
         H6        1.0000    0.31900   0.17960   0.48010   Biso      1.000     H          0.127551  
         H7        1.0000    0.68470   0.08390   0.30620   Biso      1.000     H          0.146829  
         H8        1.0000    0.65060   0.97710   0.42180   Biso      1.000     H          0.258036  
         H9        1.0000    0.17960   0.31900   0.01990   Biso      1.000     H          0.127557  
         H10       1.0000    0.73260   0.19260   0.37040   Biso      1.000     H          0.149598  
         H11       1.0000    0.82040   0.13940   0.48010   Biso      1.000     H          0.127545  
         H12       1.0000    0.29420   0.25340   0.55090   Biso      1.000     H          0.141297  
         H13       1.0000    0.26740   0.46000   0.12960   Biso      1.000     H          0.149604  
         H14       1.0000    0.46000   0.19260   0.87040   Biso      1.000     H          0.149599  
         H15       1.0000    0.34940   0.32650   0.07820   Biso      1.000     H          0.25804   
         H16       1.0000    0.74660   0.04080   0.55090   Biso      1.000     H          0.14128800000000002           
         H17       1.0000    0.68100   0.86060   0.01990   Biso      1.000     H          0.127548  
         H18       1.0000    0.54000   0.80740   0.12960   Biso      1.000     H          0.149599  
         H19       1.0000    0.60080   0.91610   0.19380   Biso      1.000     H          0.146833  
         H20       1.0000    0.67350   0.02290   0.07820   Biso      1.000     H          0.258037  
         H21       1.0000    0.04080   0.74660   0.94910   Biso      1.000     H          0.14130299999999998           
         H22       1.0000    0.13940   0.82040   0.01990   Biso      1.000     H          0.127555  
         H23       1.0000    0.19260   0.73260   0.12960   Biso      1.000     H          0.149606  
         H24       1.0000    0.08390   0.68470   0.19380   Biso      1.000     H          0.146835  
         H25       1.0000    0.97710   0.65060   0.07820   Biso      1.000     H          0.25803899999999996           
         H26       1.0000    0.31530   0.39920   0.19380   Biso      1.000     H          0.146836  
         H27       1.0000    0.02290   0.67350   0.42180   Biso      1.000     H          0.25803899999999996           
         H28       1.0000    0.70580   0.95920   0.94910   Biso      1.000     H          0.141293  
         H29       1.0000    0.80740   0.54000   0.37040   Biso      1.000     H          0.14960299999999999           
         H30       1.0000    0.26740   0.80740   0.62960   Biso      1.000     H          0.149599  
         H31       1.0000    0.31530   0.91610   0.69380   Biso      1.000     H          0.14683   
         H32       1.0000    0.34940   0.02290   0.57820   Biso      1.000     H          0.258036  
         H33       1.0000    0.70580   0.74660   0.44910   Biso      1.000     H          0.141299  
         H34       1.0000    0.68100   0.82040   0.51990   Biso      1.000     H          0.127552  
         H35       1.0000    0.54000   0.73260   0.62960   Biso      1.000     H          0.149605  
         H36       1.0000    0.17960   0.86060   0.51990   Biso      1.000     H          0.127547  
         H37       1.0000    0.60080   0.68470   0.69380   Biso      1.000     H          0.146831  
         H38       1.0000    0.82040   0.68100   0.98010   Biso      1.000     H          0.127557  
         H39       1.0000    0.73260   0.54000   0.87040   Biso      1.000     H          0.149604  
         H40       1.0000    0.68470   0.60080   0.80620   Biso      1.000     H          0.146837  
         H41       1.0000    0.65060   0.67350   0.92180   Biso      1.000     H          0.25804   
         H42       1.0000    0.29420   0.04080   0.05090   Biso      1.000     H          0.141291  
         H43       1.0000    0.91610   0.60080   0.30620   Biso      1.000     H          0.146833  
         H44       1.0000    0.67350   0.65060   0.57820   Biso      1.000     H          0.258037  
         H45       1.0000    0.25340   0.95920   0.44910   Biso      1.000     H          0.141291  
         H46       1.0000    0.74660   0.70580   0.05090   Biso      1.000     H          0.141308  
         H47       1.0000    0.08390   0.39920   0.69380   Biso      1.000     H          0.146833  
         H48       1.0000    0.19260   0.46000   0.62960   Biso      1.000     H          0.14960299999999999           
         H49       1.0000    0.13940   0.31900   0.51990   Biso      1.000     H          0.127553  
         H50       1.0000    0.04080   0.29420   0.44910   Biso      1.000     H          0.141301  
         H51       1.0000    0.39920   0.08390   0.80620   Biso      1.000     H          0.146831  
         H52       1.0000    0.32650   0.97710   0.92180   Biso      1.000     H          0.258036  
         H53       1.0000    0.95920   0.25340   0.05090   Biso      1.000     H          0.141301  
         H54       1.0000    0.86060   0.17960   0.98010   Biso      1.000     H          0.127554  
         H55       1.0000    0.80740   0.26740   0.87040   Biso      1.000     H          0.149606  
         H56       1.0000    0.97710   0.32650   0.57820   Biso      1.000     H          0.25803899999999996           
         H57       1.0000    0.91610   0.31530   0.80620   Biso      1.000     H          0.146833  
         H58       1.0000    0.02290   0.34940   0.92180   Biso      1.000     H          0.25803899999999996           
         H59       1.0000    0.95920   0.70580   0.55090   Biso      1.000     H          0.141302  
         H60       1.0000    0.86060   0.68100   0.48010   Biso      1.000     H          0.127554  
         N1        1.0000    0.95730   0.34720   0.94160   Biso      1.000     N          -0.285945           
         N2        1.0000    0.38990   0.04270   0.94160   Biso      1.000     N          -0.28594400000000003          
         N3        1.0000    0.34720   0.95730   0.55840   Biso      1.000     N          -0.28594400000000003          
         N4        1.0000    0.61010   0.65280   0.55840   Biso      1.000     N          -0.285945           
         N5        1.0000    0.95730   0.61010   0.44160   Biso      1.000     N          -0.285943           
         N6        1.0000    0.04270   0.38990   0.55840   Biso      1.000     N          -0.285943           
         N7        1.0000    0.65280   0.61010   0.94160   Biso      1.000     N          -0.285943           
         N8        1.0000    0.65280   0.04270   0.44160   Biso      1.000     N          -0.285945           
         N9        1.0000    0.04270   0.65280   0.05840   Biso      1.000     N          -0.285945           
         N10       1.0000    0.34720   0.38990   0.05840   Biso      1.000     N          -0.28594200000000003          
         N11       1.0000    0.61010   0.95730   0.05840   Biso      1.000     N          -0.28594400000000003          
         N12       1.0000    0.38990   0.34720   0.44160   Biso      1.000     N          -0.285945           
         O1        1.0000    0.75420   0.19440   0.12720   Biso      1.000     O          -0.6133390000000001           
         O2        1.0000    0.92560   0.52390   0.89170   Biso      1.000     O          -0.527319           
         O3        1.0000    0.81580   0.38110   0.27160   Biso      1.000     O          -0.6675300000000001           
         O4        1.0000    0.81150   0.36050   0.05870   Biso      1.000     O          -0.679338           
         O5        1.0000    0.63950   0.45100   0.05870   Biso      1.000     O          -0.679337           
         O6        1.0000    0.81580   0.43470   0.77160   Biso      1.000     O          -0.667543           
         O7        1.0000    0.54900   0.18850   0.05870   Biso      1.000     O          -0.679331           
         O8        1.0000    0.59830   0.07440   0.89170   Biso      1.000     O          -0.527325           
         O9        1.0000    0.44020   0.24580   0.12720   Biso      1.000     O          -0.613354           
         O10       1.0000    0.61890   0.18420   0.77160   Biso      1.000     O          -0.6674979999999999           
         O11       1.0000    0.47610   0.40170   0.89170   Biso      1.000     O          -0.527315           
         O12       1.0000    0.18850   0.54900   0.44130   Biso      1.000     O          -0.6793399999999999           
         O13       1.0000    0.56530   0.38110   0.77160   Biso      1.000     O          -0.667524           
         O14       1.0000    0.45100   0.63950   0.44130   Biso      1.000     O          -0.6793399999999999           
         O15       1.0000    0.40170   0.47610   0.60830   Biso      1.000     O          -0.527319           
         O16       1.0000    0.55980   0.80560   0.37280   Biso      1.000     O          -0.613345           
         O17       1.0000    0.38110   0.56530   0.72840   Biso      1.000     O          -0.66755  
         O18       1.0000    0.36050   0.81150   0.44130   Biso      1.000     O          -0.67933  
         O19       1.0000    0.52390   0.92560   0.60830   Biso      1.000     O          -0.527324           
         O20       1.0000    0.07440   0.59830   0.60830   Biso      1.000     O          -0.527316           
         O21       1.0000    0.43470   0.81580   0.72840   Biso      1.000     O          -0.667502           
         O22       1.0000    0.19440   0.75420   0.37280   Biso      1.000     O          -0.6133569999999999           
         O23       1.0000    0.75420   0.55980   0.62720   Biso      1.000     O          -0.613356           
         O24       1.0000    0.80560   0.55980   0.12720   Biso      1.000     O          -0.61335  
         O25       1.0000    0.92560   0.40170   0.39170   Biso      1.000     O          -0.527316           
         O26       1.0000    0.18420   0.61890   0.72840   Biso      1.000     O          -0.667531           
         O27       1.0000    0.56530   0.18420   0.27160   Biso      1.000     O          -0.667502           
         O28       1.0000    0.24580   0.44020   0.37280   Biso      1.000     O          -0.613356           
         O29       1.0000    0.18850   0.63950   0.94130   Biso      1.000     O          -0.679338           
         O30       1.0000    0.07440   0.47610   0.10830   Biso      1.000     O          -0.5273180000000001           
         O31       1.0000    0.24580   0.80560   0.87280   Biso      1.000     O          -0.613338           
         O32       1.0000    0.18420   0.56530   0.22840   Biso      1.000     O          -0.667543           
         O33       1.0000    0.45100   0.81150   0.94130   Biso      1.000     O          -0.67933  
         O34       1.0000    0.40170   0.92560   0.10830   Biso      1.000     O          -0.527324           
         O35       1.0000    0.55980   0.75420   0.87280   Biso      1.000     O          -0.6133529999999999           
         O36       1.0000    0.81150   0.45100   0.55870   Biso      1.000     O          -0.679339           
         O37       1.0000    0.36050   0.54900   0.94130   Biso      1.000     O          -0.679337           
         O38       1.0000    0.38110   0.81580   0.22840   Biso      1.000     O          -0.6674979999999999           
         O39       1.0000    0.19440   0.44020   0.87280   Biso      1.000     O          -0.613349           
         O40       1.0000    0.43470   0.61890   0.22840   Biso      1.000     O          -0.667524           
         O41       1.0000    0.54900   0.36050   0.55870   Biso      1.000     O          -0.6793399999999999           
         O42       1.0000    0.59830   0.52390   0.39170   Biso      1.000     O          -0.527321           
         O43       1.0000    0.44020   0.19440   0.62720   Biso      1.000     O          -0.6133460000000001           
         O44       1.0000    0.61890   0.43470   0.27160   Biso      1.000     O          -0.66755  
         O45       1.0000    0.63950   0.18850   0.55870   Biso      1.000     O          -0.679331           
         O46       1.0000    0.47610   0.07440   0.39170   Biso      1.000     O          -0.527325           
         O47       1.0000    0.80560   0.24580   0.62720   Biso      1.000     O          -0.613358           
         O48       1.0000    0.52390   0.59830   0.10830   Biso      1.000     O          -0.527315           
         Tb1       1.0000    0.33333   0.66666   0.33226   Biso      1.000     Tb          2.072364  
         Tb2       1.0000    0.66667   0.33334   0.16774   Biso      1.000     Tb          2.072365  
         Tb3       1.0000    0.66667   0.33334   0.66774   Biso      1.000     Tb          2.072362  
         Tb4       1.0000    0.33333   0.66666   0.83226   Biso      1.000     Tb          2.072367 