
##########################################################################
#               Crystallographic Information Format file
#               Produced by PyCifRW module
#
#  This is a CIF file.  CIF has been adopted by the International
#  Union of Crystallography as the standard for data archiving and
#  transmission.
#
#  For information on this file format, follow the CIF links at
#  http://www.iucr.org
##########################################################################

data_image0

_cell_length_a                          9.0246
_cell_length_b                          14.8111
_cell_length_c                          23.061
_cell_angle_alpha                       90
_cell_angle_beta                        90
_cell_angle_gamma                       92.7732
_symmetry_space_group_name_H-M          'P 1'
_symmetry_int_tables_number             1
loop_
  _symmetry_equiv_pos_as_xyz
         'x, y, z' 
loop_
  _atom_site_label
  _atom_site_occupancy
  _atom_site_fract_x
  _atom_site_fract_y
  _atom_site_fract_z
  _atom_site_thermal_displace_type
  _atom_site_B_iso_or_equiv
  _atom_site_type_symbol
  _atom_site_charge
         C1        1.0000    0.45390   0.62830   0.91030   Biso      1.000     C          -0.192005           
         C2        1.0000    0.72200   0.65180   0.18310   Biso      1.000     C          -0.280033           
         C3        1.0000    0.60850   0.69360   0.22160   Biso      1.000     C          -0.008602           
         C4        1.0000    0.46400   0.70290   0.20160   Biso      1.000     C          0.056733  
         C5        1.0000    0.64890   0.72350   0.27720   Biso      1.000     C          0.053929  
         C6        1.0000    0.80750   0.72040   0.29820   Biso      1.000     C          -0.514762           
         C7        1.0000    0.54200   0.75940   0.31390   Biso      1.000     C          0.050399  
         C8        1.0000    0.58510   0.78810   0.37440   Biso      1.000     C          -0.510006           
         C9        1.0000    0.00480   0.63730   0.47950   Biso      1.000     C          0.712471  
         C10       1.0000    0.98500   0.73430   0.46227   Biso      1.000     C          -0.103035           
         C11       1.0000    0.87900   0.78010   0.49300   Biso      1.000     C          -0.084436           
         C12       1.0000    0.93740   0.68230   0.09572   Biso      1.000     C          0.064421  
         C13       1.0000    0.85770   0.87090   0.48350   Biso      1.000     C          -0.123038           
         C14       1.0000    0.04610   0.87170   0.41030   Biso      1.000     C          -0.192005           
         C15       1.0000    0.06980   0.78040   0.41885   Biso      1.000     C          0.072539  
         C16       1.0000    0.28360   0.81100   0.33160   Biso      1.000     C          -0.273139           
         C17       1.0000    0.39740   0.76780   0.29340   Biso      1.000     C          -0.010757           
         C18       1.0000    0.35820   0.73850   0.23760   Biso      1.000     C          0.060017  
         C19       1.0000    0.42080   0.67320   0.13970   Biso      1.000     C          -0.509962           
         C20       1.0000    0.19950   0.74630   0.21570   Biso      1.000     C          -0.516034           
         C21       1.0000    0.60950   0.54640   0.40220   Biso      1.000     C          0.476073  
         C22       1.0000    0.51960   0.33040   0.45650   Biso      1.000     C          0.683616  
         C23       1.0000    0.52910   0.23090   0.44370   Biso      1.000     C          -0.091011           
         C24       1.0000    0.94190   0.91680   0.44190   Biso      1.000     C          -0.056464           
         C25       1.0000    0.63550   0.18600   0.47460   Biso      1.000     C          -0.087901           
         C26       1.0000    0.95510   0.59040   0.10080   Biso      1.000     C          -0.202688           
         C27       1.0000    0.15180   0.59490   0.03080   Biso      1.000     C          -0.105372           
         C28       1.0000    0.56260   0.81770   0.59572   Biso      1.000     C          0.064421  
         C29       1.0000    0.77800   0.84820   0.68310   Biso      1.000     C          -0.280033           
         C30       1.0000    0.89150   0.80640   0.72160   Biso      1.000     C          -0.008602           
         C31       1.0000    0.03600   0.79710   0.70160   Biso      1.000     C          0.056733  
         C32       1.0000    0.69250   0.77960   0.79820   Biso      1.000     C          -0.514761           
         C33       1.0000    0.95800   0.74060   0.81390   Biso      1.000     C          0.0504    
         C34       1.0000    0.91490   0.71190   0.87440   Biso      1.000     C          -0.510006           
         C35       1.0000    0.49520   0.86270   0.97950   Biso      1.000     C          0.71247   
         C36       1.0000    0.51500   0.76570   0.96227   Biso      1.000     C          -0.103035           
         C37       1.0000    0.62100   0.71990   0.99300   Biso      1.000     C          -0.084436           
         C38       1.0000    0.06160   0.54790   0.06910   Biso      1.000     C          -0.066044           
         C39       1.0000    0.64230   0.62910   0.98350   Biso      1.000     C          -0.123038           
         C40       1.0000    0.43020   0.71960   0.91885   Biso      1.000     C          0.072539  
         C41       1.0000    0.21640   0.68900   0.83160   Biso      1.000     C          -0.273139           
         C42       1.0000    0.10260   0.73220   0.79340   Biso      1.000     C          -0.010757           
         C43       1.0000    0.14180   0.76150   0.73760   Biso      1.000     C          0.060017  
         C44       1.0000    0.07920   0.82680   0.63970   Biso      1.000     C          -0.509962           
         C45       1.0000    0.30050   0.75370   0.71570   Biso      1.000     C          -0.516034           
         C46       1.0000    0.89050   0.95360   0.90220   Biso      1.000     C          0.476073  
         C47       1.0000    0.01960   0.83040   0.04350   Biso      1.000     C          0.683616  
         C48       1.0000    0.02910   0.73090   0.05630   Biso      1.000     C          -0.091011           
         C49       1.0000    0.13550   0.68600   0.02540   Biso      1.000     C          -0.0879   
         C50       1.0000    0.55810   0.58320   0.94190   Biso      1.000     C          -0.056464           
         C51       1.0000    0.54490   0.90960   0.60080   Biso      1.000     C          -0.202687           
         C52       1.0000    0.65180   0.09490   0.46920   Biso      1.000     C          -0.105372           
         C53       1.0000    0.45510   0.09040   0.39920   Biso      1.000     C          -0.202689           
         C54       1.0000    0.04490   0.40960   0.89920   Biso      1.000     C          -0.202687           
         C55       1.0000    0.06260   0.31770   0.90428   Biso      1.000     C          0.064421  
         C56       1.0000    0.27800   0.34820   0.81690   Biso      1.000     C          -0.280033           
         C57       1.0000    0.39150   0.30640   0.77840   Biso      1.000     C          -0.008602           
         C58       1.0000    0.53600   0.29710   0.79840   Biso      1.000     C          0.056733  
         C59       1.0000    0.35110   0.27650   0.72280   Biso      1.000     C          0.053929  
         C60       1.0000    0.19250   0.27960   0.70180   Biso      1.000     C          -0.514762           
         C61       1.0000    0.45800   0.24060   0.68610   Biso      1.000     C          0.050399  
         C62       1.0000    0.41490   0.21190   0.62560   Biso      1.000     C          -0.510006           
         C63       1.0000    0.99520   0.36270   0.52050   Biso      1.000     C          0.71247   
         C64       1.0000    0.93840   0.45210   0.93090   Biso      1.000     C          -0.066054           
         C65       1.0000    0.01500   0.26570   0.53773   Biso      1.000     C          -0.103035           
         C66       1.0000    0.14230   0.12910   0.51650   Biso      1.000     C          -0.123041           
         C67       1.0000    0.05810   0.08320   0.55810   Biso      1.000     C          -0.056464           
         C68       1.0000    0.95390   0.12830   0.58970   Biso      1.000     C          -0.192005           
         C69       1.0000    0.93020   0.21960   0.58115   Biso      1.000     C          0.072539  
         C70       1.0000    0.71640   0.18900   0.66840   Biso      1.000     C          -0.273139           
         C71       1.0000    0.60260   0.23220   0.70660   Biso      1.000     C          -0.010757           
         C72       1.0000    0.64180   0.26150   0.76240   Biso      1.000     C          0.060017  
         C73       1.0000    0.57920   0.32680   0.86030   Biso      1.000     C          -0.509961           
         C74       1.0000    0.80050   0.25370   0.78430   Biso      1.000     C          -0.516034           
         C75       1.0000    0.39050   0.45360   0.59780   Biso      1.000     C          0.476073  
         C76       1.0000    0.12100   0.21990   0.50700   Biso      1.000     C          -0.084433           
         C77       1.0000    0.56160   0.04790   0.43090   Biso      1.000     C          -0.066044           
         C78       1.0000    0.84820   0.40510   0.96920   Biso      1.000     C          -0.105362           
         C79       1.0000    0.97090   0.26910   0.94370   Biso      1.000     C          -0.091011           
         C80       1.0000    0.43740   0.18230   0.40428   Biso      1.000     C          0.064421  
         C81       1.0000    0.22200   0.15180   0.31690   Biso      1.000     C          -0.280033           
         C82       1.0000    0.10850   0.19360   0.27840   Biso      1.000     C          -0.008602           
         C83       1.0000    0.96400   0.20290   0.29840   Biso      1.000     C          0.056733  
         C84       1.0000    0.14890   0.22350   0.22280   Biso      1.000     C          0.053929  
         C85       1.0000    0.30750   0.22040   0.20180   Biso      1.000     C          -0.514762           
         C86       1.0000    0.04200   0.25940   0.18610   Biso      1.000     C          0.050399  
         C87       1.0000    0.08510   0.28810   0.12560   Biso      1.000     C          -0.510006           
         C88       1.0000    0.50480   0.13730   0.02050   Biso      1.000     C          0.71247   
         C89       1.0000    0.48500   0.23430   0.03773   Biso      1.000     C          -0.103035           
         C90       1.0000    0.86450   0.31400   0.97460   Biso      1.000     C          -0.087902           
         C91       1.0000    0.37900   0.28010   0.00700   Biso      1.000     C          -0.084436           
         C92       1.0000    0.44190   0.41680   0.05810   Biso      1.000     C          -0.056465           
         C93       1.0000    0.54610   0.37170   0.08970   Biso      1.000     C          -0.192005           
         C94       1.0000    0.56980   0.28040   0.08115   Biso      1.000     C          0.072539  
         C95       1.0000    0.78360   0.31100   0.16840   Biso      1.000     C          -0.273139           
         C96       1.0000    0.89740   0.26780   0.20660   Biso      1.000     C          -0.010757           
         C97       1.0000    0.85820   0.23850   0.26240   Biso      1.000     C          0.060017  
         C98       1.0000    0.92080   0.17320   0.36030   Biso      1.000     C          -0.509962           
         C99       1.0000    0.69950   0.24630   0.28430   Biso      1.000     C          -0.516034           
         C100      1.0000    0.10950   0.04640   0.09780   Biso      1.000     C          0.476073  
         C101      1.0000    0.98040   0.16960   0.95650   Biso      1.000     C          0.683616  
         C102      1.0000    0.35770   0.37090   0.01650   Biso      1.000     C          -0.123037           
         C103      1.0000    0.43840   0.95210   0.56910   Biso      1.000     C          -0.066054           
         C104      1.0000    0.85110   0.77650   0.77720   Biso      1.000     C          0.053927  
         C105      1.0000    0.36450   0.81400   0.52540   Biso      1.000     C          -0.087903           
         C106      1.0000    0.47090   0.76910   0.55630   Biso      1.000     C          -0.091009           
         C107      1.0000    0.48040   0.66960   0.54350   Biso      1.000     C          0.683616  
         C108      1.0000    0.34820   0.90510   0.53080   Biso      1.000     C          -0.105361           
         H1        1.0000    0.84590   0.78070   0.30620   Biso      1.000     H          0.165927  
         H2        1.0000    0.50090   0.81150   0.39370   Biso      1.000     H          0.150693  
         H3        1.0000    0.66360   0.83420   0.37270   Biso      1.000     H          0.162763  
         H4        1.0000    0.61840   0.73700   0.39550   Biso      1.000     H          0.168328  
         H5        1.0000    0.82120   0.74900   0.52060   Biso      1.000     H          0.104658  
         H6        1.0000    0.20720   0.83650   0.30790   Biso      1.000     H          0.133567  
         H7        1.0000    0.33070   0.85900   0.35470   Biso      1.000     H          0.130264  
         H8        1.0000    0.31830   0.68450   0.13300   Biso      1.000     H          0.162248  
         H9        1.0000    0.43550   0.60980   0.13530   Biso      1.000     H          0.155386  
         H10       1.0000    0.48150   0.70680   0.11230   Biso      1.000     H          0.16249   
         H11       1.0000    0.17480   0.80860   0.21590   Biso      1.000     H          0.163571  
         H12       1.0000    0.81040   0.68470   0.33290   Biso      1.000     H          0.166023  
         H13       1.0000    0.13230   0.71210   0.24040   Biso      1.000     H          0.158439  
         H14       1.0000    0.79600   0.62900   0.20700   Biso      1.000     H          0.138867  
         H15       1.0000    0.22000   0.56400   0.00800   Biso      1.000     H          0.10135   
         H16       1.0000    0.09200   0.90700   0.38500   Biso      1.000     H          0.11829   
         H17       1.0000    0.78500   0.89500   0.50600   Biso      1.000     H          0.105247  
         H18       1.0000    0.19500   0.71400   0.99800   Biso      1.000     H          0.102798  
         H19       1.0000    0.92600   0.98000   0.43500   Biso      1.000     H          0.09615   
         H20       1.0000    0.06400   0.49000   0.07200   Biso      1.000     H          0.104583  
         H21       1.0000    0.19200   0.72320   0.17680   Biso      1.000     H          0.160215  
         H22       1.0000    0.86690   0.69400   0.26870   Biso      1.000     H          0.154357  
         H23       1.0000    0.43600   0.01000   0.57200   Biso      1.000     H          0.104584  
         H24       1.0000    0.90900   0.56300   0.12600   Biso      1.000     H          0.125136  
         H25       1.0000    0.63310   0.80600   0.76870   Biso      1.000     H          0.154357  
         H26       1.0000    0.68960   0.81530   0.83290   Biso      1.000     H          0.166023  
         H27       1.0000    0.65410   0.71930   0.80620   Biso      1.000     H          0.165927  
         H28       1.0000    0.99910   0.68850   0.89370   Biso      1.000     H          0.150693  
         H29       1.0000    0.83640   0.66580   0.87270   Biso      1.000     H          0.162763  
         H30       1.0000    0.88160   0.76300   0.89550   Biso      1.000     H          0.168328  
         H31       1.0000    0.67880   0.75100   0.02060   Biso      1.000     H          0.104658  
         H32       1.0000    0.29280   0.66350   0.80790   Biso      1.000     H          0.133567  
         H33       1.0000    0.16930   0.64100   0.85470   Biso      1.000     H          0.130264  
         H34       1.0000    0.18170   0.81550   0.63300   Biso      1.000     H          0.162248  
         H35       1.0000    0.59100   0.93700   0.62600   Biso      1.000     H          0.125135  
         H36       1.0000    0.06450   0.89020   0.63530   Biso      1.000     H          0.155386  
         H37       1.0000    0.30800   0.77680   0.67680   Biso      1.000     H          0.160215  
         H38       1.0000    0.32520   0.69140   0.71590   Biso      1.000     H          0.163571  
         H39       1.0000    0.36770   0.78790   0.74040   Biso      1.000     H          0.158438  
         H40       1.0000    0.70400   0.87100   0.70700   Biso      1.000     H          0.138867  
         H41       1.0000    0.28000   0.93600   0.50800   Biso      1.000     H          0.101349  
         H42       1.0000    0.40800   0.59300   0.88500   Biso      1.000     H          0.11829   
         H43       1.0000    0.82500   0.89300   0.65900   Biso      1.000     H          0.137081  
         H44       1.0000    0.71500   0.60500   0.00600   Biso      1.000     H          0.105247  
         H45       1.0000    0.30500   0.78600   0.49800   Biso      1.000     H          0.102798  
         H46       1.0000    0.57400   0.52000   0.93500   Biso      1.000     H          0.09615   
         H47       1.0000    0.01850   0.79320   0.61230   Biso      1.000     H          0.16249   
         H48       1.0000    0.36690   0.19400   0.23130   Biso      1.000     H          0.154357  
         H49       1.0000    0.67500   0.60700   0.15900   Biso      1.000     H          0.137081  
         H50       1.0000    0.34590   0.28070   0.19380   Biso      1.000     H          0.165927  
         H51       1.0000    0.33640   0.16580   0.62730   Biso      1.000     H          0.162763  
         H52       1.0000    0.38160   0.26300   0.60450   Biso      1.000     H          0.168328  
         H53       1.0000    0.17880   0.25100   0.47940   Biso      1.000     H          0.104658  
         H54       1.0000    0.79280   0.16350   0.69210   Biso      1.000     H          0.133567  
         H55       1.0000    0.66930   0.14100   0.64530   Biso      1.000     H          0.130265  
         H56       1.0000    0.31040   0.18470   0.16710   Biso      1.000     H          0.166023  
         H57       1.0000    0.56450   0.39020   0.86470   Biso      1.000     H          0.155386  
         H58       1.0000    0.51850   0.29320   0.88770   Biso      1.000     H          0.16249   
         H59       1.0000    0.80800   0.27680   0.82320   Biso      1.000     H          0.160216  
         H60       1.0000    0.49910   0.18850   0.60630   Biso      1.000     H          0.150693  
         H61       1.0000    0.82520   0.19140   0.78410   Biso      1.000     H          0.163571  
         H62       1.0000    0.20400   0.37100   0.79300   Biso      1.000     H          0.138867  
         H63       1.0000    0.78000   0.43600   0.99200   Biso      1.000     H          0.101349  
         H64       1.0000    0.90800   0.09300   0.61500   Biso      1.000     H          0.11829   
         H65       1.0000    0.32500   0.39300   0.84100   Biso      1.000     H          0.137081  
         H66       1.0000    0.21500   0.10500   0.49400   Biso      1.000     H          0.105247  
         H67       1.0000    0.80500   0.28600   0.00200   Biso      1.000     H          0.102798  
         H68       1.0000    0.07400   0.02000   0.56500   Biso      1.000     H          0.09615   
         H69       1.0000    0.93600   0.51000   0.92800   Biso      1.000     H          0.104584  
         H70       1.0000    0.09100   0.43700   0.87400   Biso      1.000     H          0.125136  
         H71       1.0000    0.86770   0.28790   0.75960   Biso      1.000     H          0.158439  
         H72       1.0000    0.15410   0.21930   0.69380   Biso      1.000     H          0.165927  
         H73       1.0000    0.68170   0.31550   0.86700   Biso      1.000     H          0.162248  
         H74       1.0000    0.13310   0.30600   0.73130   Biso      1.000     H          0.154357  
         H75       1.0000    0.00090   0.31150   0.10630   Biso      1.000     H          0.150693  
         H76       1.0000    0.16360   0.33420   0.12730   Biso      1.000     H          0.162763  
         H77       1.0000    0.11840   0.23700   0.10450   Biso      1.000     H          0.168328  
         H78       1.0000    0.18960   0.31530   0.66710   Biso      1.000     H          0.166023  
         H79       1.0000    0.70720   0.33650   0.19210   Biso      1.000     H          0.133567  
         H80       1.0000    0.83070   0.35900   0.14530   Biso      1.000     H          0.130264  
         H81       1.0000    0.81830   0.18450   0.36700   Biso      1.000     H          0.162248  
         H82       1.0000    0.93550   0.10980   0.36470   Biso      1.000     H          0.155386  
         H83       1.0000    0.98150   0.20680   0.38770   Biso      1.000     H          0.16249   
         H84       1.0000    0.69200   0.22320   0.32320   Biso      1.000     H          0.160215  
         H85       1.0000    0.67480   0.30860   0.28410   Biso      1.000     H          0.163571  
         H86       1.0000    0.32120   0.24900   0.97940   Biso      1.000     H          0.104658  
         H87       1.0000    0.63230   0.21210   0.25960   Biso      1.000     H          0.158438  
         H88       1.0000    0.40900   0.06300   0.37400   Biso      1.000     H          0.125136  
         H89       1.0000    0.56400   0.99000   0.42800   Biso      1.000     H          0.104583  
         H90       1.0000    0.69500   0.21400   0.50200   Biso      1.000     H          0.102798  
         H91       1.0000    0.28500   0.39500   0.99400   Biso      1.000     H          0.105247  
         H92       1.0000    0.42600   0.48000   0.06500   Biso      1.000     H          0.096151  
         H93       1.0000    0.59200   0.40700   0.11500   Biso      1.000     H          0.11829   
         H94       1.0000    0.72000   0.06400   0.49200   Biso      1.000     H          0.10135   
         H95       1.0000    0.29600   0.12900   0.29300   Biso      1.000     H          0.138867  
         H96       1.0000    0.17500   0.10700   0.34100   Biso      1.000     H          0.137081  
         O1        1.0000    0.89270   0.86230   0.04675   Biso      1.000     O          -0.711423           
         O2        1.0000    0.63800   0.37310   0.47039   Biso      1.000     O          -0.667946           
         O3        1.0000    0.11690   0.59950   0.46054   Biso      1.000     O          -0.712728           
         O4        1.0000    0.91060   0.59900   0.51290   Biso      1.000     O          -0.729746           
         O5        1.0000    0.74520   0.53920   0.41200   Biso      1.000     O          -0.503354           
         O6        1.0000    0.51910   0.54450   0.44448   Biso      1.000     O          -0.762101           
         O7        1.0000    0.39270   0.36230   0.45325   Biso      1.000     O          -0.711423           
         O8        1.0000    0.08940   0.40100   0.48710   Biso      1.000     O          -0.729746           
         O9        1.0000    0.41060   0.09900   0.98710   Biso      1.000     O          -0.729746           
         O10       1.0000    0.24520   0.03920   0.08800   Biso      1.000     O          -0.503354           
         O11       1.0000    0.01910   0.04450   0.05552   Biso      1.000     O          -0.762101           
         O12       1.0000    0.86200   0.12690   0.97039   Biso      1.000     O          -0.667946           
         O13       1.0000    0.88310   0.40050   0.53946   Biso      1.000     O          -0.712728           
         O14       1.0000    0.10730   0.13770   0.95325   Biso      1.000     O          -0.711423           
         O15       1.0000    0.13800   0.87310   0.02961   Biso      1.000     O          -0.667946           
         O16       1.0000    0.61690   0.09950   0.03946   Biso      1.000     O          -0.712728           
         O17       1.0000    0.98090   0.95550   0.94448   Biso      1.000     O          -0.762101           
         O18       1.0000    0.48090   0.45550   0.55552   Biso      1.000     O          -0.762101           
         O19       1.0000    0.58940   0.90100   0.01290   Biso      1.000     O          -0.729746           
         O20       1.0000    0.38310   0.90050   0.96054   Biso      1.000     O          -0.712728           
         O21       1.0000    0.60730   0.63770   0.54675   Biso      1.000     O          -0.711423           
         O22       1.0000    0.36200   0.62690   0.52961   Biso      1.000     O          -0.667946           
         O23       1.0000    0.25480   0.46080   0.58800   Biso      1.000     O          -0.503354           
         O24       1.0000    0.75480   0.96080   0.91200   Biso      1.000     O          -0.503355           
         S1        1.0000    0.69410   0.75966   0.63707   Biso      1.000     S          0.018106  
         S2        1.0000    0.29721   0.77726   0.87836   Biso      1.000     S          0.014043  
         S3        1.0000    0.80590   0.74034   0.13707   Biso      1.000     S          0.018107  
         S4        1.0000    0.20279   0.72274   0.37836   Biso      1.000     S          0.014043  
         S5        1.0000    0.70279   0.22274   0.12164   Biso      1.000     S          0.014043  
         S6        1.0000    0.19410   0.25966   0.86293   Biso      1.000     S          0.018107  
         S7        1.0000    0.79721   0.27726   0.62164   Biso      1.000     S          0.014043  
         S8        1.0000    0.30590   0.24034   0.36293   Biso      1.000     S          0.018107  
         Tm1       1.0000    0.29009   0.49616   0.48157   Biso      1.000     Tm          2.231806  
         Tm2       1.0000    0.20991   0.00384   0.98157   Biso      1.000     Tm          2.231806  
         Tm3       1.0000    0.70991   0.50384   0.51843   Biso      1.000     Tm          2.231806  
         Tm4       1.0000    0.79009   0.99616   0.01843   Biso      1.000     Tm          2.231806 