
##########################################################################
#               Crystallographic Information Format file
#               Produced by PyCifRW module
#
#  This is a CIF file.  CIF has been adopted by the International
#  Union of Crystallography as the standard for data archiving and
#  transmission.
#
#  For information on this file format, follow the CIF links at
#  http://www.iucr.org
##########################################################################

data_image0

_cell_length_a                          9.0068
_cell_length_b                          14.8035
_cell_length_c                          22.9837
_cell_angle_alpha                       90
_cell_angle_beta                        90
_cell_angle_gamma                       92.787
_symmetry_space_group_name_H-M          'P 1'
_symmetry_int_tables_number             1
loop_
  _symmetry_equiv_pos_as_xyz
         'x, y, z' 
loop_
  _atom_site_label
  _atom_site_occupancy
  _atom_site_fract_x
  _atom_site_fract_y
  _atom_site_fract_z
  _atom_site_thermal_displace_type
  _atom_site_B_iso_or_equiv
  _atom_site_type_symbol
  _atom_site_charge
         C1        1.0000    0.65070   0.09380   0.46877   Biso      1.000     C          -0.116605           
         C2        1.0000    0.12110   0.21900   0.50714   Biso      1.000     C          -0.079555           
         C3        1.0000    0.01450   0.26560   0.53759   Biso      1.000     C          -0.105148           
         C4        1.0000    0.96990   0.26930   0.94370   Biso      1.000     C          -0.092294           
         C5        1.0000    0.05740   0.08330   0.55823   Biso      1.000     C          -0.0691   
         C6        1.0000    0.14210   0.12900   0.51692   Biso      1.000     C          -0.114725           
         C7        1.0000    0.98050   0.16970   0.95606   Biso      1.000     C          0.684966  
         C8        1.0000    0.93020   0.21890   0.58035   Biso      1.000     C          0.062941  
         C9        1.0000    0.71560   0.18860   0.66849   Biso      1.000     C          -0.276588           
         C10       1.0000    0.19230   0.28000   0.70230   Biso      1.000     C          -0.517204           
         C11       1.0000    0.39130   0.30550   0.77869   Biso      1.000     C          -0.011688           
         C12       1.0000    0.35090   0.27600   0.72272   Biso      1.000     C          0.057197  
         C13       1.0000    0.60160   0.23210   0.70642   Biso      1.000     C          -0.009413           
         C14       1.0000    0.95220   0.12770   0.58935   Biso      1.000     C          -0.167656           
         C15       1.0000    0.27840   0.34860   0.81723   Biso      1.000     C          -0.269766           
         C16       1.0000    0.64270   0.26100   0.76257   Biso      1.000     C          0.060131  
         C17       1.0000    0.04590   0.41050   0.89868   Biso      1.000     C          -0.176624           
         C18       1.0000    0.84930   0.40620   0.96877   Biso      1.000     C          -0.116605           
         C19       1.0000    0.94100   0.45380   0.93117   Biso      1.000     C          -0.06738  
         C20       1.0000    0.53510   0.29700   0.79893   Biso      1.000     C          0.057932  
         C21       1.0000    0.57870   0.32500   0.86060   Biso      1.000     C          -0.517027           
         C22       1.0000    0.45780   0.24070   0.68616   Biso      1.000     C          0.050971  
         C23       1.0000    0.41560   0.21250   0.62477   Biso      1.000     C          -0.513249           
         C24       1.0000    0.80000   0.25230   0.78440   Biso      1.000     C          -0.515328           
         C25       1.0000    0.06350   0.31740   0.90421   Biso      1.000     C          0.047981  
         C26       1.0000    0.39050   0.45340   0.59748   Biso      1.000     C          0.479858  
         C27       1.0000    0.86310   0.31450   0.97453   Biso      1.000     C          -0.085403           
         C28       1.0000    0.10950   0.04660   0.09748   Biso      1.000     C          0.479857  
         C29       1.0000    0.53010   0.23070   0.44370   Biso      1.000     C          -0.092294           
         C30       1.0000    0.48550   0.23440   0.03759   Biso      1.000     C          -0.105148           
         C31       1.0000    0.37890   0.28100   0.00714   Biso      1.000     C          -0.079555           
         C32       1.0000    0.43650   0.18260   0.40421   Biso      1.000     C          0.047981  
         C33       1.0000    0.63690   0.18550   0.47453   Biso      1.000     C          -0.085403           
         C34       1.0000    0.50480   0.13740   0.02076   Biso      1.000     C          0.714203  
         C35       1.0000    0.51950   0.33030   0.45606   Biso      1.000     C          0.684965  
         C36       1.0000    0.56980   0.28110   0.08035   Biso      1.000     C          0.062941  
         C37       1.0000    0.78440   0.31140   0.16849   Biso      1.000     C          -0.276587           
         C38       1.0000    0.30770   0.22000   0.20230   Biso      1.000     C          -0.517203           
         C39       1.0000    0.10870   0.19450   0.27869   Biso      1.000     C          -0.011689           
         C40       1.0000    0.14910   0.22400   0.22272   Biso      1.000     C          0.057198  
         C41       1.0000    0.89840   0.26790   0.20642   Biso      1.000     C          -0.009413           
         C42       1.0000    0.54780   0.37230   0.08935   Biso      1.000     C          -0.167657           
         C43       1.0000    0.22160   0.15140   0.31723   Biso      1.000     C          -0.269765           
         C44       1.0000    0.85730   0.23900   0.26257   Biso      1.000     C          0.060132  
         C45       1.0000    0.45410   0.08950   0.39868   Biso      1.000     C          -0.176623           
         C46       1.0000    0.55900   0.04620   0.43117   Biso      1.000     C          -0.06738  
         C47       1.0000    0.96490   0.20300   0.29893   Biso      1.000     C          0.057932  
         C48       1.0000    0.92130   0.17500   0.36060   Biso      1.000     C          -0.517027           
         C49       1.0000    0.04220   0.25930   0.18616   Biso      1.000     C          0.050971  
         C50       1.0000    0.08440   0.28750   0.12477   Biso      1.000     C          -0.513249           
         C51       1.0000    0.70000   0.24770   0.28440   Biso      1.000     C          -0.515328           
         C52       1.0000    0.99520   0.36260   0.52076   Biso      1.000     C          0.714202  
         C53       1.0000    0.49520   0.86260   0.97924   Biso      1.000     C          0.714203  
         C54       1.0000    0.36310   0.81450   0.52547   Biso      1.000     C          -0.085406           
         C55       1.0000    0.56350   0.81740   0.59579   Biso      1.000     C          0.047981  
         C56       1.0000    0.98550   0.73440   0.46241   Biso      1.000     C          -0.105148           
         C57       1.0000    0.03010   0.73070   0.05630   Biso      1.000     C          -0.092295           
         C58       1.0000    0.94260   0.91670   0.44177   Biso      1.000     C          -0.069099           
         C59       1.0000    0.85790   0.87100   0.48308   Biso      1.000     C          -0.11473  
         C60       1.0000    0.01950   0.83030   0.04394   Biso      1.000     C          0.684966  
         C61       1.0000    0.06980   0.78110   0.41965   Biso      1.000     C          0.062941  
         C62       1.0000    0.28440   0.81140   0.33151   Biso      1.000     C          -0.276587           
         C63       1.0000    0.80770   0.72000   0.29770   Biso      1.000     C          -0.517204           
         C64       1.0000    0.60870   0.69450   0.22131   Biso      1.000     C          -0.011688           
         C65       1.0000    0.64910   0.72400   0.27728   Biso      1.000     C          0.057197  
         C66       1.0000    0.39840   0.76790   0.29358   Biso      1.000     C          -0.009413           
         C67       1.0000    0.04780   0.87230   0.41065   Biso      1.000     C          -0.167657           
         C68       1.0000    0.72160   0.65140   0.18277   Biso      1.000     C          -0.269765           
         C69       1.0000    0.35730   0.73900   0.23743   Biso      1.000     C          0.060131  
         C70       1.0000    0.95410   0.58950   0.10132   Biso      1.000     C          -0.176623           
         C71       1.0000    0.15070   0.59380   0.03123   Biso      1.000     C          -0.116606           
         C72       1.0000    0.05900   0.54620   0.06883   Biso      1.000     C          -0.06738  
         C73       1.0000    0.46490   0.70300   0.20107   Biso      1.000     C          0.057932  
         C74       1.0000    0.42130   0.67500   0.13940   Biso      1.000     C          -0.517027           
         C75       1.0000    0.54220   0.75930   0.31384   Biso      1.000     C          0.050971  
         C76       1.0000    0.58440   0.78750   0.37523   Biso      1.000     C          -0.513249           
         C77       1.0000    0.20000   0.74770   0.21560   Biso      1.000     C          -0.515328           
         C78       1.0000    0.60950   0.54660   0.40252   Biso      1.000     C          0.479858  
         C79       1.0000    0.87890   0.78100   0.49286   Biso      1.000     C          -0.079549           
         C80       1.0000    0.93650   0.68260   0.09579   Biso      1.000     C          0.047981  
         C81       1.0000    0.13690   0.68550   0.02547   Biso      1.000     C          -0.085403           
         C82       1.0000    0.00480   0.63740   0.47924   Biso      1.000     C          0.714202  
         C83       1.0000    0.62110   0.71900   0.99286   Biso      1.000     C          -0.079555           
         C84       1.0000    0.51450   0.76560   0.96241   Biso      1.000     C          -0.105148           
         C85       1.0000    0.46990   0.76930   0.55630   Biso      1.000     C          -0.092294           
         C86       1.0000    0.55740   0.58330   0.94177   Biso      1.000     C          -0.0691   
         C87       1.0000    0.64210   0.62900   0.98308   Biso      1.000     C          -0.114725           
         C88       1.0000    0.48050   0.66970   0.54394   Biso      1.000     C          0.684965  
         C89       1.0000    0.43020   0.71890   0.91965   Biso      1.000     C          0.062941  
         C90       1.0000    0.21560   0.68860   0.83151   Biso      1.000     C          -0.276588           
         C91       1.0000    0.69230   0.78000   0.79770   Biso      1.000     C          -0.517204           
         C92       1.0000    0.89130   0.80550   0.72131   Biso      1.000     C          -0.011688           
         C93       1.0000    0.85090   0.77600   0.77728   Biso      1.000     C          0.057197  
         C94       1.0000    0.44260   0.41670   0.05823   Biso      1.000     C          -0.069099           
         C95       1.0000    0.10160   0.73210   0.79358   Biso      1.000     C          -0.009412           
         C96       1.0000    0.77840   0.84860   0.68277   Biso      1.000     C          -0.269765           
         C97       1.0000    0.14270   0.76100   0.73743   Biso      1.000     C          0.060131  
         C98       1.0000    0.54590   0.91050   0.60132   Biso      1.000     C          -0.176623           
         C99       1.0000    0.34930   0.90620   0.53123   Biso      1.000     C          -0.116602           
         C100      1.0000    0.44100   0.95380   0.56883   Biso      1.000     C          -0.06738  
         C101      1.0000    0.03510   0.79700   0.70107   Biso      1.000     C          0.057932  
         C102      1.0000    0.07870   0.82500   0.63940   Biso      1.000     C          -0.517027           
         C103      1.0000    0.95780   0.74070   0.81384   Biso      1.000     C          0.050971  
         C104      1.0000    0.91560   0.71250   0.87523   Biso      1.000     C          -0.513249           
         C105      1.0000    0.30000   0.75230   0.71560   Biso      1.000     C          -0.515329           
         C106      1.0000    0.89050   0.95340   0.90252   Biso      1.000     C          0.479857  
         C107      1.0000    0.45220   0.62770   0.91065   Biso      1.000     C          -0.167657           
         C108      1.0000    0.35790   0.37100   0.01692   Biso      1.000     C          -0.114725           
         Er1       1.0000    0.21016   0.00396   0.98161   Biso      1.000     Er          2.146534  
         Er2       1.0000    0.28984   0.49604   0.48161   Biso      1.000     Er          2.146534  
         Er3       1.0000    0.78984   0.99604   0.01839   Biso      1.000     Er          2.146533  
         Er4       1.0000    0.71016   0.50396   0.51839   Biso      1.000     Er          2.146534  
         H1        1.0000    0.13210   0.71380   0.24050   Biso      1.000     H          0.160642  
         H2        1.0000    0.79960   0.28200   0.99960   Biso      1.000     H          0.103559  
         H3        1.0000    0.17940   0.24980   0.47950   Biso      1.000     H          0.102995  
         H4        1.0000    0.07110   0.02240   0.56520   Biso      1.000     H          0.103585  
         H5        1.0000    0.21300   0.09930   0.49580   Biso      1.000     H          0.103354  
         H6        1.0000    0.66860   0.14060   0.64530   Biso      1.000     H          0.128557  
         H7        1.0000    0.79190   0.16310   0.69240   Biso      1.000     H          0.13217   
         H8        1.0000    0.17620   0.81020   0.21600   Biso      1.000     H          0.163433  
         H9        1.0000    0.16350   0.34160   0.70280   Biso      1.000     H          0.16406   
         H10       1.0000    0.12830   0.24430   0.72760   Biso      1.000     H          0.158429  
         H11       1.0000    0.89490   0.09600   0.61690   Biso      1.000     H          0.111669  
         H12       1.0000    0.32660   0.39550   0.84110   Biso      1.000     H          0.127865  
         H13       1.0000    0.67620   0.31020   0.28400   Biso      1.000     H          0.163434  
         H14       1.0000    0.10570   0.44390   0.87270   Biso      1.000     H          0.111549  
         H15       1.0000    0.77850   0.43550   0.99020   Biso      1.000     H          0.102848  
         H16       1.0000    0.93280   0.51590   0.92730   Biso      1.000     H          0.103367  
         H17       1.0000    0.49470   0.34900   0.87990   Biso      1.000     H          0.149467  
         H18       1.0000    0.65850   0.37030   0.85920   Biso      1.000     H          0.161302  
         H19       1.0000    0.61040   0.27330   0.88160   Biso      1.000     H          0.176421  
         H20       1.0000    0.50040   0.18940   0.60550   Biso      1.000     H          0.15005   
         H21       1.0000    0.38260   0.26390   0.60380   Biso      1.000     H          0.166362  
         H22       1.0000    0.20300   0.37580   0.79370   Biso      1.000     H          0.133411  
         H23       1.0000    0.63210   0.21380   0.25950   Biso      1.000     H          0.160643  
         H24       1.0000    0.16300   0.33370   0.12610   Biso      1.000     H          0.161021  
         H25       1.0000    0.33700   0.16630   0.62610   Biso      1.000     H          0.16102   
         H26       1.0000    0.70040   0.21800   0.49960   Biso      1.000     H          0.103559  
         H27       1.0000    0.32060   0.25020   0.97950   Biso      1.000     H          0.102995  
         H28       1.0000    0.42890   0.47760   0.06520   Biso      1.000     H          0.103585  
         H29       1.0000    0.28700   0.40070   0.99580   Biso      1.000     H          0.103354  
         H30       1.0000    0.83140   0.35940   0.14530   Biso      1.000     H          0.128557  
         H31       1.0000    0.70810   0.33690   0.19240   Biso      1.000     H          0.13217   
         H32       1.0000    0.31600   0.24330   0.16340   Biso      1.000     H          0.161677  
         H33       1.0000    0.33650   0.15840   0.20280   Biso      1.000     H          0.164059  
         H34       1.0000    0.37170   0.25570   0.22760   Biso      1.000     H          0.158429  
         H35       1.0000    0.69190   0.22470   0.32330   Biso      1.000     H          0.161765  
         H36       1.0000    0.60510   0.40400   0.11690   Biso      1.000     H          0.111669  
         H37       1.0000    0.17340   0.10450   0.34110   Biso      1.000     H          0.127865  
         H38       1.0000    0.39430   0.05610   0.37270   Biso      1.000     H          0.111549  
         H39       1.0000    0.72150   0.06450   0.49020   Biso      1.000     H          0.102848  
         H40       1.0000    0.56720   0.98410   0.42730   Biso      1.000     H          0.103367  
         H41       1.0000    0.00530   0.15100   0.37990   Biso      1.000     H          0.149467  
         H42       1.0000    0.84150   0.12970   0.35920   Biso      1.000     H          0.161302  
         H43       1.0000    0.88960   0.22670   0.38160   Biso      1.000     H          0.17642   
         H44       1.0000    0.99960   0.31060   0.10550   Biso      1.000     H          0.15005   
         H45       1.0000    0.11740   0.23610   0.10380   Biso      1.000     H          0.166362  
         H46       1.0000    0.29700   0.12420   0.29370   Biso      1.000     H          0.133411  
         H47       1.0000    0.80810   0.27530   0.82330   Biso      1.000     H          0.161765  
         H48       1.0000    0.18400   0.25670   0.66340   Biso      1.000     H          0.161677  
         H49       1.0000    0.82380   0.18980   0.78400   Biso      1.000     H          0.163434  
         H50       1.0000    0.82060   0.75020   0.52050   Biso      1.000     H          0.102995  
         H51       1.0000    0.92890   0.97760   0.43480   Biso      1.000     H          0.103585  
         H52       1.0000    0.78700   0.90070   0.50420   Biso      1.000     H          0.103355  
         H53       1.0000    0.33140   0.85940   0.35470   Biso      1.000     H          0.128557  
         H54       1.0000    0.20810   0.83690   0.30760   Biso      1.000     H          0.132171  
         H55       1.0000    0.81600   0.74330   0.33660   Biso      1.000     H          0.161677  
         H56       1.0000    0.83650   0.65840   0.29720   Biso      1.000     H          0.164059  
         H57       1.0000    0.87170   0.75570   0.27240   Biso      1.000     H          0.158429  
         H58       1.0000    0.10510   0.90400   0.38310   Biso      1.000     H          0.111669  
         H59       1.0000    0.79700   0.62420   0.20630   Biso      1.000     H          0.13341   
         H60       1.0000    0.67340   0.60450   0.15890   Biso      1.000     H          0.127866  
         H61       1.0000    0.89430   0.55610   0.12730   Biso      1.000     H          0.111549  
         H62       1.0000    0.86790   0.28620   0.75950   Biso      1.000     H          0.160642  
         H63       1.0000    0.06720   0.48410   0.07270   Biso      1.000     H          0.103367  
         H64       1.0000    0.50530   0.65100   0.12010   Biso      1.000     H          0.149467  
         H65       1.0000    0.34150   0.62970   0.14080   Biso      1.000     H          0.161302  
         H66       1.0000    0.38960   0.72670   0.11840   Biso      1.000     H          0.176421  
         H67       1.0000    0.49960   0.81060   0.39450   Biso      1.000     H          0.15005   
         H68       1.0000    0.61740   0.73610   0.39620   Biso      1.000     H          0.166362  
         H69       1.0000    0.66300   0.83370   0.37390   Biso      1.000     H          0.161021  
         H70       1.0000    0.19190   0.72470   0.17670   Biso      1.000     H          0.161765  
         H71       1.0000    0.20040   0.71800   0.00040   Biso      1.000     H          0.103559  
         H72       1.0000    0.32380   0.68980   0.71600   Biso      1.000     H          0.163434  
         H73       1.0000    0.22150   0.56450   0.00980   Biso      1.000     H          0.102848  
         H74       1.0000    0.30810   0.77530   0.67670   Biso      1.000     H          0.161765  
         H75       1.0000    0.36790   0.78620   0.74050   Biso      1.000     H          0.160643  
         H76       1.0000    0.29960   0.78200   0.50040   Biso      1.000     H          0.103559  
         H77       1.0000    0.67940   0.74980   0.02050   Biso      1.000     H          0.102995  
         H78       1.0000    0.57110   0.52240   0.93480   Biso      1.000     H          0.103586  
         H79       1.0000    0.71300   0.59930   0.00420   Biso      1.000     H          0.103355  
         H80       1.0000    0.29190   0.66310   0.80760   Biso      1.000     H          0.132171  
         H81       1.0000    0.68400   0.75670   0.83660   Biso      1.000     H          0.161677  
         H82       1.0000    0.66350   0.84160   0.79720   Biso      1.000     H          0.16406   
         H83       1.0000    0.62830   0.74430   0.77240   Biso      1.000     H          0.158428  
         H84       1.0000    0.39490   0.59600   0.88310   Biso      1.000     H          0.111669  
         H85       1.0000    0.16860   0.64060   0.85470   Biso      1.000     H          0.128557  
         H86       1.0000    0.82660   0.89550   0.65890   Biso      1.000     H          0.127866  
         H87       1.0000    0.70300   0.87580   0.70630   Biso      1.000     H          0.133411  
         H88       1.0000    0.88260   0.76390   0.89620   Biso      1.000     H          0.166362  
         H89       1.0000    0.00040   0.68940   0.89450   Biso      1.000     H          0.15005   
         H90       1.0000    0.83700   0.66630   0.87390   Biso      1.000     H          0.161021  
         H91       1.0000    0.15850   0.87030   0.64080   Biso      1.000     H          0.161302  
         H92       1.0000    0.11040   0.77330   0.61840   Biso      1.000     H          0.17642   
         H93       1.0000    0.99470   0.84900   0.62010   Biso      1.000     H          0.149467  
         H94       1.0000    0.43280   0.01590   0.57270   Biso      1.000     H          0.103367  
         H95       1.0000    0.27850   0.93550   0.50980   Biso      1.000     H          0.102848  
         H96       1.0000    0.60570   0.94390   0.62730   Biso      1.000     H          0.111549  
         O1        1.0000    0.48080   0.45529   0.55593   Biso      1.000     O          -0.734074           
         O2        1.0000    0.86200   0.12768   0.96995   Biso      1.000     O          -0.659279           
         O3        1.0000    0.75470   0.96080   0.91200   Biso      1.000     O          -0.499816           
         O4        1.0000    0.58880   0.89985   0.01311   Biso      1.000     O          -0.714638           
         O5        1.0000    0.88400   0.40013   0.54018   Biso      1.000     O          -0.69399  
         O6        1.0000    0.60660   0.63794   0.54693   Biso      1.000     O          -0.692748           
         O7        1.0000    0.91120   0.60015   0.51311   Biso      1.000     O          -0.714638           
         O8        1.0000    0.38400   0.90013   0.95982   Biso      1.000     O          -0.693991           
         O9        1.0000    0.98080   0.95529   0.94407   Biso      1.000     O          -0.734074           
         O10       1.0000    0.74530   0.53920   0.41200   Biso      1.000     O          -0.499815           
         O11       1.0000    0.89340   0.86206   0.04693   Biso      1.000     O          -0.692748           
         O12       1.0000    0.10660   0.13794   0.95307   Biso      1.000     O          -0.692748           
         O13       1.0000    0.13800   0.87232   0.03005   Biso      1.000     O          -0.659279           
         O14       1.0000    0.36200   0.62768   0.53005   Biso      1.000     O          -0.659279           
         O15       1.0000    0.08880   0.39985   0.48689   Biso      1.000     O          -0.714638           
         O16       1.0000    0.51920   0.54471   0.44407   Biso      1.000     O          -0.734074           
         O17       1.0000    0.01920   0.04471   0.05593   Biso      1.000     O          -0.734074           
         O18       1.0000    0.61600   0.09987   0.04018   Biso      1.000     O          -0.693991           
         O19       1.0000    0.63800   0.37232   0.46995   Biso      1.000     O          -0.659279           
         O20       1.0000    0.39340   0.36206   0.45307   Biso      1.000     O          -0.692748           
         O21       1.0000    0.41120   0.10015   0.98689   Biso      1.000     O          -0.714638           
         O22       1.0000    0.24530   0.03920   0.08800   Biso      1.000     O          -0.499816           
         O23       1.0000    0.11600   0.59987   0.45982   Biso      1.000     O          -0.69399  
         O24       1.0000    0.25470   0.46080   0.58800   Biso      1.000     O          -0.499815           
         S1        1.0000    0.20335   0.72292   0.37834   Biso      1.000     S          0.008038  
         S2        1.0000    0.80582   0.74017   0.13708   Biso      1.000     S          0.028986  
         S3        1.0000    0.29665   0.77708   0.87834   Biso      1.000     S          0.008038  
         S4        1.0000    0.79665   0.27708   0.62166   Biso      1.000     S          0.008038  
         S5        1.0000    0.19418   0.25983   0.86292   Biso      1.000     S          0.028987  
         S6        1.0000    0.70335   0.22292   0.12166   Biso      1.000     S          0.008038  
         S7        1.0000    0.30582   0.24017   0.36292   Biso      1.000     S          0.028987  
         S8        1.0000    0.69418   0.75983   0.63708   Biso      1.000     S          0.028987 