
##########################################################################
#               Crystallographic Information Format file
#               Produced by PyCifRW module
#
#  This is a CIF file.  CIF has been adopted by the International
#  Union of Crystallography as the standard for data archiving and
#  transmission.
#
#  For information on this file format, follow the CIF links at
#  http://www.iucr.org
##########################################################################

data_image0

_cell_length_a                          10.888
_cell_length_b                          12.822
_cell_length_c                          13.4783
_cell_angle_alpha                       118.402
_cell_angle_beta                        109.353
_cell_angle_gamma                       90
_symmetry_space_group_name_H-M          'P 1'
_symmetry_int_tables_number             1
loop_
  _symmetry_equiv_pos_as_xyz
         'x, y, z' 
loop_
  _atom_site_label
  _atom_site_occupancy
  _atom_site_fract_x
  _atom_site_fract_y
  _atom_site_fract_z
  _atom_site_thermal_displace_type
  _atom_site_B_iso_or_equiv
  _atom_site_type_symbol
  _atom_site_charge
         C1        1.0000    0.68070   0.62904   0.83548   Biso      1.000     C          0.059222000000000004          
         C2        1.0000    0.37520   0.50166   0.54652   Biso      1.000     C          0.036467  
         C3        1.0000    0.18680   0.47722   0.60244   Biso      1.000     C          -0.28370500000000004          
         C4        1.0000    0.25800   0.42738   0.52636   Biso      1.000     C          0.102363  
         C5        1.0000    0.21750   0.30660   0.43360   Biso      1.000     C          -0.171966           
         C6        1.0000    0.10820   0.23666   0.41792   Biso      1.000     C          -0.058595           
         C7        1.0000    0.03920   0.28540   0.49320   Biso      1.000     C          -0.205884           
         C8        1.0000    0.07830   0.40512   0.58464   Biso      1.000     C          0.264943  
         C9        1.0000    0.00760   0.56817   0.72574   Biso      1.000     C          -0.05375800000000001          
         C10       1.0000    0.87530   0.69920   0.83760   Biso      1.000     C          0.013363  
         C11       1.0000    0.89040   0.58384   0.76308   Biso      1.000     C          0.071121  
         C12       1.0000    0.79400   0.48790   0.72500   Biso      1.000     C          -0.097473           
         C13       1.0000    0.59120   0.14146   0.12452   Biso      1.000     C          0.279412  
         C14       1.0000    0.68770   0.51170   0.76220   Biso      1.000     C          -0.11815899999999999          
         C15       1.0000    0.12480   0.95514   0.45348   Biso      1.000     C          0.038411  
         C16       1.0000    0.31320   0.87478   0.39756   Biso      1.000     C          -0.28441700000000003          
         C17       1.0000    0.24200   0.90102   0.47364   Biso      1.000     C          0.102805  
         C18       1.0000    0.81930   0.79356   0.16452   Biso      1.000     C          0.060828  
         C19       1.0000    0.81230   0.74950   0.23780   Biso      1.000     C          -0.11921400000000001          
         C20       1.0000    0.70600   0.76290   0.27500   Biso      1.000     C          -0.097014           
         C21       1.0000    0.60960   0.82076   0.23692   Biso      1.000     C          0.069595  
         C22       1.0000    0.62470   0.86160   0.16240   Biso      1.000     C          0.015786  
         C23       1.0000    0.49240   0.84243   0.27426   Biso      1.000     C          -0.055470000000000005         
         C24       1.0000    0.42170   0.82048   0.41536   Biso      1.000     C          0.2651    
         C25       1.0000    0.46080   0.79220   0.50680   Biso      1.000     C          -0.20595500000000003          
         C26       1.0000    0.90880   0.01694   0.87548   Biso      1.000     C          0.278087  
         C27       1.0000    0.18070   0.20644   0.83548   Biso      1.000     C          0.060826  
         C28       1.0000    0.18770   0.25050   0.76220   Biso      1.000     C          -0.11921500000000002          
         C29       1.0000    0.29400   0.23710   0.72500   Biso      1.000     C          -0.097014           
         C30       1.0000    0.40880   0.85854   0.87548   Biso      1.000     C          0.279411  
         C31       1.0000    0.62480   0.49834   0.45348   Biso      1.000     C          0.036468  
         C32       1.0000    0.81320   0.52278   0.39756   Biso      1.000     C          -0.28370500000000004          
         C33       1.0000    0.74200   0.57262   0.47364   Biso      1.000     C          0.102363  
         C34       1.0000    0.78250   0.69340   0.56640   Biso      1.000     C          -0.171966           
         C35       1.0000    0.89180   0.76334   0.58208   Biso      1.000     C          -0.058595           
         C36       1.0000    0.96080   0.71460   0.50680   Biso      1.000     C          -0.205884           
         C37       1.0000    0.92170   0.59488   0.41536   Biso      1.000     C          0.264943  
         C38       1.0000    0.99240   0.43183   0.27426   Biso      1.000     C          -0.053757000000000006         
         C39       1.0000    0.12470   0.30080   0.16240   Biso      1.000     C          0.013363  
         C40       1.0000    0.10960   0.41616   0.23692   Biso      1.000     C          0.071121  
         C41       1.0000    0.20600   0.51210   0.27500   Biso      1.000     C          -0.097471           
         C42       1.0000    0.31230   0.48830   0.23780   Biso      1.000     C          -0.11816800000000001          
         C43       1.0000    0.31930   0.37096   0.16452   Biso      1.000     C          0.059234  
         C44       1.0000    0.09120   0.98306   0.12452   Biso      1.000     C          0.278087  
         C45       1.0000    0.87520   0.04486   0.54652   Biso      1.000     C          0.038413  
         C46       1.0000    0.68680   0.12522   0.60244   Biso      1.000     C          -0.284416           
         C47       1.0000    0.75800   0.09898   0.52636   Biso      1.000     C          0.102805  
         C48       1.0000    0.71750   0.12700   0.43360   Biso      1.000     C          -0.172587           
         C49       1.0000    0.60820   0.18126   0.41792   Biso      1.000     C          -0.0584   
         C50       1.0000    0.53920   0.20780   0.49320   Biso      1.000     C          -0.20595100000000002          
         C51       1.0000    0.57830   0.17952   0.58464   Biso      1.000     C          0.2651    
         C52       1.0000    0.50760   0.15757   0.72574   Biso      1.000     C          -0.055471000000000006         
         C53       1.0000    0.37530   0.13840   0.83760   Biso      1.000     C          0.015782  
         C54       1.0000    0.39040   0.17924   0.76308   Biso      1.000     C          0.0696    
         C55       1.0000    0.39180   0.81874   0.58208   Biso      1.000     C          -0.058398           
         C56       1.0000    0.28250   0.87300   0.56640   Biso      1.000     C          -0.172585           
         Cd1       1.0000    0.75000   0.92086   0.00000   Biso      1.000     Cd          0.710942  
         Cd2       1.0000    0.25000   0.07914   0.00000   Biso      1.000     Cd          0.710942  
         H1        1.0000    0.78730   0.44040   0.33460   Biso      1.000     H          0.12751400000000002           
         H2        1.0000    0.08070   0.15450   0.35480   Biso      1.000     H          0.10860399999999999           
         H3        1.0000    0.96470   0.23700   0.48260   Biso      1.000     H          0.123153  
         H4        1.0000    0.00410   0.60720   0.67700   Biso      1.000     H          0.094288  
         H5        1.0000    0.09080   0.60620   0.79880   Biso      1.000     H          0.092096  
         H6        1.0000    0.94140   0.76530   0.86440   Biso      1.000     H          0.101873  
         H7        1.0000    0.80060   0.40720   0.67420   Biso      1.000     H          0.11653699999999999           
         H8        1.0000    0.62040   0.44740   0.73720   Biso      1.000     H          0.119424  
         H9        1.0000    0.60080   0.41540   0.39200   Biso      1.000     H          0.094678  
         H10       1.0000    0.10080   0.97660   0.39200   Biso      1.000     H          0.093328  
         H11       1.0000    0.28730   0.89420   0.33460   Biso      1.000     H          0.127604  
         H12       1.0000    0.23520   0.89120   0.61880   Biso      1.000     H          0.10465799999999999           
         H13       1.0000    0.41930   0.79970   0.64520   Biso      1.000     H          0.108149  
         H14       1.0000    0.53530   0.75440   0.51740   Biso      1.000     H          0.12298900000000001           
         H15       1.0000    0.49590   0.93020   0.32300   Biso      1.000     H          0.094565  
         H16       1.0000    0.40920   0.80740   0.20120   Biso      1.000     H          0.09324299999999999           
         H17       1.0000    0.55860   0.90090   0.13560   Biso      1.000     H          0.101497  
         H18       1.0000    0.69940   0.73300   0.32580   Biso      1.000     H          0.11669500000000001           
         H19       1.0000    0.87960   0.71020   0.26280   Biso      1.000     H          0.11919600000000001           
         H20       1.0000    0.89290   0.78440   0.14000   Biso      1.000     H          0.093041  
         H21       1.0000    0.26480   0.27240   0.38120   Biso      1.000     H          0.10446300000000001           
         H22       1.0000    0.21270   0.55960   0.66540   Biso      1.000     H          0.12751400000000002           
         H23       1.0000    0.60710   0.64440   0.86000   Biso      1.000     H          0.093208  
         H24       1.0000    0.10710   0.21560   0.86000   Biso      1.000     H          0.093041  
         H25       1.0000    0.39920   0.58460   0.60800   Biso      1.000     H          0.094678  
         H26       1.0000    0.91930   0.84550   0.64520   Biso      1.000     H          0.10860399999999999           
         H27       1.0000    0.03530   0.76300   0.51740   Biso      1.000     H          0.123153  
         H28       1.0000    0.99590   0.39280   0.32300   Biso      1.000     H          0.094288  
         H29       1.0000    0.90920   0.39380   0.20120   Biso      1.000     H          0.092096  
         H30       1.0000    0.05860   0.23470   0.13560   Biso      1.000     H          0.101873  
         H31       1.0000    0.19940   0.59280   0.32580   Biso      1.000     H          0.11653699999999999           
         H32       1.0000    0.37960   0.55260   0.26280   Biso      1.000     H          0.119425  
         H33       1.0000    0.39290   0.35560   0.14000   Biso      1.000     H          0.093207  
         H34       1.0000    0.73520   0.72760   0.61880   Biso      1.000     H          0.10446300000000001           
         H35       1.0000    0.71270   0.10580   0.66540   Biso      1.000     H          0.127603  
         H36       1.0000    0.89920   0.02340   0.60800   Biso      1.000     H          0.093327  
         H37       1.0000    0.12040   0.28980   0.73720   Biso      1.000     H          0.11919600000000001           
         H38       1.0000    0.44140   0.09910   0.86440   Biso      1.000     H          0.101497  
         H39       1.0000    0.59080   0.19260   0.79880   Biso      1.000     H          0.09324400000000001           
         H40       1.0000    0.30060   0.26700   0.67420   Biso      1.000     H          0.11669500000000001           
         H41       1.0000    0.46470   0.24560   0.48260   Biso      1.000     H          0.12298900000000001           
         H42       1.0000    0.58070   0.20030   0.35480   Biso      1.000     H          0.108149  
         H43       1.0000    0.76480   0.10880   0.38120   Biso      1.000     H          0.10465899999999999           
         H44       1.0000    0.50410   0.06980   0.67700   Biso      1.000     H          0.094565  
         N1        1.0000    0.52190   0.86292   0.90204   Biso      1.000     N          -0.461477           
         N2        1.0000    0.47810   0.13708   0.09796   Biso      1.000     N          -0.461477           
         N3        1.0000    0.55410   0.54303   0.51706   Biso      1.000     N          -0.174177           
         N4        1.0000    0.22660   0.27702   0.12604   Biso      1.000     N          -0.21028400000000003          
         N5        1.0000    0.97810   0.96088   0.09796   Biso      1.000     N          -0.46050399999999997          
         N6        1.0000    0.94590   0.02597   0.48294   Biso      1.000     N          -0.17439100000000002          
         N7        1.0000    0.27340   0.15098   0.87396   Biso      1.000     N          -0.21121700000000002          
         N8        1.0000    0.44590   0.45697   0.48294   Biso      1.000     N          -0.174172           
         N9        1.0000    0.72660   0.84902   0.12604   Biso      1.000     N          -0.211218           
         N10       1.0000    0.02190   0.03912   0.90204   Biso      1.000     N          -0.46050399999999997          
         N11       1.0000    0.05410   0.97403   0.51706   Biso      1.000     N          -0.17438599999999999          
         N12       1.0000    0.77340   0.72298   0.87396   Biso      1.000     N          -0.210283           
         O1        1.0000    0.50380   0.21280   0.65580   Biso      1.000     O          -0.202653           
         O2        1.0000    0.49620   0.78720   0.34420   Biso      1.000     O          -0.202653           
         O3        1.0000    0.00380   0.44300   0.65580   Biso      1.000     O          -0.20290999999999998          
         O4        1.0000    0.99620   0.55700   0.34420   Biso      1.000     O          -0.20290999999999998          
         S1        1.0000    0.24787   0.85033   0.83304   Biso      1.000     S          -0.319838           
         S2        1.0000    0.25213   0.01729   0.16696   Biso      1.000     S          -0.319212           
         S3        1.0000    0.75213   0.14967   0.16696   Biso      1.000     S          -0.319838           
         S4        1.0000    0.74787   0.98271   0.83304   Biso      1.000     S          -0.319212 