
##########################################################################
#               Crystallographic Information Format file
#               Produced by PyCifRW module
#
#  This is a CIF file.  CIF has been adopted by the International
#  Union of Crystallography as the standard for data archiving and
#  transmission.
#
#  For information on this file format, follow the CIF links at
#  http://www.iucr.org
##########################################################################

data_image0

_cell_length_a                          6.7797
_cell_length_b                          7.5077
_cell_length_c                          12.8325
_cell_angle_alpha                       107.009
_cell_angle_beta                        103.454
_cell_angle_gamma                       90
_symmetry_space_group_name_H-M          'P 1'
_symmetry_int_tables_number             1
loop_
  _symmetry_equiv_pos_as_xyz
         'x, y, z' 
loop_
  _atom_site_label
  _atom_site_occupancy
  _atom_site_fract_x
  _atom_site_fract_y
  _atom_site_fract_z
  _atom_site_thermal_displace_type
  _atom_site_B_iso_or_equiv
  _atom_site_type_symbol
  _atom_site_charge
         C1        1.0000    0.65280   0.72940   0.82280   Biso      1.000     C          0.633109  
         C2        1.0000    0.37220   0.54610   0.67820   Biso      1.000     C          -0.10492699999999999          
         C3        1.0000    0.59440   0.54700   0.51400   Biso      1.000     C          0.080838  
         C4        1.0000    0.71740   0.54320   0.43840   Biso      1.000     C          -0.129661           
         C5        1.0000    0.70120   0.62610   0.62620   Biso      1.000     C          -0.12709700000000002          
         C6        1.0000    0.58280   0.61990   0.70780   Biso      1.000     C          -0.05996699999999999          
         C7        1.0000    0.12780   0.86790   0.32180   Biso      1.000     C          -0.105118           
         C8        1.0000    0.90560   0.03300   0.48600   Biso      1.000     C          0.080708  
         C9        1.0000    0.84720   0.90660   0.17720   Biso      1.000     C          0.630612  
         C10       1.0000    0.79880   0.99990   0.37380   Biso      1.000     C          -0.125852           
         C11       1.0000    0.91720   0.91210   0.29220   Biso      1.000     C          -0.062045           
         C12       1.0000    0.62780   0.45390   0.32180   Biso      1.000     C          -0.106873           
         C13       1.0000    0.78260   0.10480   0.56160   Biso      1.000     C          -0.130132           
         C14       1.0000    0.34720   0.27060   0.17720   Biso      1.000     C          0.633047  
         C15       1.0000    0.28260   0.45680   0.56160   Biso      1.000     C          -0.131889           
         C16       1.0000    0.29880   0.37390   0.37380   Biso      1.000     C          -0.12671500000000002          
         C17       1.0000    0.41720   0.38010   0.29220   Biso      1.000     C          -0.06188  
         C18       1.0000    0.87220   0.13210   0.67820   Biso      1.000     C          -0.107428           
         C19       1.0000    0.09440   0.96700   0.51400   Biso      1.000     C          0.07844   
         C20       1.0000    0.15280   0.09340   0.82280   Biso      1.000     C          0.630564  
         C21       1.0000    0.21740   0.89520   0.43840   Biso      1.000     C          -0.129591           
         C22       1.0000    0.20120   0.00010   0.62620   Biso      1.000     C          -0.12632100000000002          
         C23       1.0000    0.40560   0.45300   0.48600   Biso      1.000     C          0.078598  
         C24       1.0000    0.08280   0.08790   0.70780   Biso      1.000     C          -0.061678           
         H1        1.0000    0.78658   0.18572   0.74659   Biso      1.000     H          0.143002  
         H2        1.0000    0.13583   0.30882   0.34317   Biso      1.000     H          0.129219  
         H3        1.0000    0.12012   0.39060   0.52866   Biso      1.000     H          0.107287  
         H4        1.0000    0.71342   0.43913   0.25341   Biso      1.000     H          0.14283099999999999           
         H5        1.0000    0.21342   0.81428   0.25341   Biso      1.000     H          0.143008  
         H6        1.0000    0.61923   0.14061   0.53357   Biso      1.000     H          0.108569  
         H7        1.0000    0.86417   0.69118   0.65683   Biso      1.000     H          0.1301    
         H8        1.0000    0.37988   0.86193   0.47134   Biso      1.000     H          0.107249  
         H9        1.0000    0.63583   0.03436   0.34317   Biso      1.000     H          0.129736  
         H10       1.0000    0.36417   0.96564   0.65683   Biso      1.000     H          0.12903399999999998           
         H11       1.0000    0.27892   0.55669   0.74283   Biso      1.000     H          0.14269400000000002           
         H12       1.0000    0.88077   0.60704   0.46643   Biso      1.000     H          0.10818699999999999           
         O1        1.0000    0.75000   0.12100   0.00000   Biso      1.000     O          -0.9595889999999999           
         O2        1.0000    0.83560   0.78830   0.85660   Biso      1.000     O          -0.5680529999999999           
         O3        1.0000    0.59380   0.76190   0.91380   Biso      1.000     O          -0.5559310000000001           
         O4        1.0000    0.66440   0.93170   0.14340   Biso      1.000     O          -0.567033           
         O5        1.0000    0.90620   0.84810   0.08620   Biso      1.000     O          -0.555534           
         O6        1.0000    0.16440   0.21170   0.14340   Biso      1.000     O          -0.5676979999999999           
         O7        1.0000    0.40620   0.23810   0.08620   Biso      1.000     O          -0.556595           
         O8        1.0000    0.33560   0.06830   0.85660   Biso      1.000     O          -0.567002           
         O9        1.0000    0.09380   0.15190   0.91380   Biso      1.000     O          -0.555503           
         O10       1.0000    0.25000   0.87900   0.00000   Biso      1.000     O          -0.959203           
         V1        1.0000    0.50000   0.00000   0.00000   Biso      1.000     V          1.8709349999999998  
         V2        1.0000    0.00000   0.00000   0.00000   Biso      1.000     V          1.871547 