
##########################################################################
#               Crystallographic Information Format file
#               Produced by PyCifRW module
#
#  This is a CIF file.  CIF has been adopted by the International
#  Union of Crystallography as the standard for data archiving and
#  transmission.
#
#  For information on this file format, follow the CIF links at
#  http://www.iucr.org
##########################################################################

data_image0

_cell_length_a                          7.779
_cell_length_b                          14.855
_cell_length_c                          15.339
_cell_angle_alpha                       90
_cell_angle_beta                        90
_cell_angle_gamma                       98.631
_symmetry_space_group_name_H-M          'P 1'
_symmetry_int_tables_number             1
loop_
  _symmetry_equiv_pos_as_xyz
         'x, y, z' 
loop_
  _atom_site_label
  _atom_site_occupancy
  _atom_site_fract_x
  _atom_site_fract_y
  _atom_site_fract_z
  _atom_site_thermal_displace_type
  _atom_site_B_iso_or_equiv
  _atom_site_type_symbol
  _atom_site_charge
         C1        1.0000    0.69570   0.08792   0.95540   Biso      1.000     C          -0.352554           
         C2        1.0000    0.45410   0.33156   0.86628   Biso      1.000     C          0.689789  
         C3        1.0000    0.42410   0.37821   0.95130   Biso      1.000     C          -0.34271  
         C4        1.0000    0.51960   0.47632   0.95780   Biso      1.000     C          -0.152808           
         C5        1.0000    0.85340   0.87979   0.36813   Biso      1.000     C          0.690492  
         C6        1.0000    0.80430   0.91208   0.45540   Biso      1.000     C          -0.352554           
         C7        1.0000    0.95400   0.95381   0.51448   Biso      1.000     C          -0.15926500000000002          
         C8        1.0000    0.04590   0.66844   0.36628   Biso      1.000     C          0.689789  
         C9        1.0000    0.07590   0.62179   0.45130   Biso      1.000     C          -0.34271  
         C10       1.0000    0.98040   0.52368   0.45780   Biso      1.000     C          -0.152808           
         C11       1.0000    0.35340   0.87979   0.13187   Biso      1.000     C          0.690492  
         C12       1.0000    0.30430   0.91208   0.04460   Biso      1.000     C          -0.352554           
         C13       1.0000    0.45400   0.95381   0.98552   Biso      1.000     C          -0.15926500000000002          
         C14       1.0000    0.54590   0.66844   0.13372   Biso      1.000     C          0.689789  
         C15       1.0000    0.57590   0.62179   0.04870   Biso      1.000     C          -0.34271  
         C16       1.0000    0.48040   0.52368   0.04220   Biso      1.000     C          -0.152808           
         C17       1.0000    0.14660   0.12021   0.63187   Biso      1.000     C          0.690492  
         C18       1.0000    0.19570   0.08792   0.54460   Biso      1.000     C          -0.352554           
         C19       1.0000    0.04600   0.04619   0.48552   Biso      1.000     C          -0.15926400000000002          
         C20       1.0000    0.95410   0.33156   0.63372   Biso      1.000     C          0.689789  
         C21       1.0000    0.92410   0.37821   0.54870   Biso      1.000     C          -0.34271  
         C22       1.0000    0.01960   0.47632   0.54220   Biso      1.000     C          -0.152808           
         C23       1.0000    0.54600   0.04619   0.01448   Biso      1.000     C          -0.15926500000000002          
         C24       1.0000    0.64660   0.12021   0.86813   Biso      1.000     C          0.690492  
         Ca1       1.0000    0.54889   0.22053   0.71929   Biso      1.000     Ca          1.450826  
         Ca2       1.0000    0.95111   0.77947   0.21929   Biso      1.000     Ca          1.450826  
         Ca3       1.0000    0.45111   0.77947   0.28071   Biso      1.000     Ca          1.450826  
         Ca4       1.0000    0.04889   0.22053   0.78071   Biso      1.000     Ca          1.450826  
         H1        1.0000    0.53830   0.65710   0.00110   Biso      1.000     H          0.137051  
         H2        1.0000    0.09110   0.04040   0.42720   Biso      1.000     H          0.09942100000000001           
         H3        1.0000    0.96130   0.08780   0.48250   Biso      1.000     H          0.098437  
         H4        1.0000    0.73830   0.86100   0.48590   Biso      1.000     H          0.136276  
         H5        1.0000    0.72750   0.95710   0.44670   Biso      1.000     H          0.133464  
         H6        1.0000    0.64380   0.47550   0.95400   Biso      1.000     H          0.09894299999999999           
         H7        1.0000    0.69960   0.62110   0.04170   Biso      1.000     H          0.11815899999999999           
         H8        1.0000    0.30040   0.37890   0.95830   Biso      1.000     H          0.11815899999999999           
         H9        1.0000    0.19960   0.62110   0.45830   Biso      1.000     H          0.11815899999999999           
         H10       1.0000    0.40890   0.95960   0.92720   Biso      1.000     H          0.09942100000000001           
         H11       1.0000    0.53870   0.91220   0.98250   Biso      1.000     H          0.098437  
         H12       1.0000    0.76170   0.13900   0.98590   Biso      1.000     H          0.136276  
         H13       1.0000    0.77250   0.04290   0.94670   Biso      1.000     H          0.133464  
         H14       1.0000    0.46170   0.34290   0.99890   Biso      1.000     H          0.137051  
         H15       1.0000    0.03830   0.65710   0.49890   Biso      1.000     H          0.137051  
         H16       1.0000    0.48640   0.51110   0.90870   Biso      1.000     H          0.097912  
         H17       1.0000    0.85620   0.52450   0.45400   Biso      1.000     H          0.09894299999999999           
         H18       1.0000    0.01360   0.48890   0.40870   Biso      1.000     H          0.097912  
         H19       1.0000    0.35620   0.52450   0.04600   Biso      1.000     H          0.09894299999999999           
         H20       1.0000    0.27250   0.04290   0.55330   Biso      1.000     H          0.133464  
         H21       1.0000    0.26170   0.13900   0.51410   Biso      1.000     H          0.136276  
         H22       1.0000    0.03870   0.91220   0.51750   Biso      1.000     H          0.098437  
         H23       1.0000    0.90890   0.95960   0.57280   Biso      1.000     H          0.09942100000000001           
         H24       1.0000    0.80040   0.37890   0.54170   Biso      1.000     H          0.11815899999999999           
         H25       1.0000    0.51360   0.48890   0.09130   Biso      1.000     H          0.097911  
         H26       1.0000    0.98640   0.51110   0.59130   Biso      1.000     H          0.097912  
         H27       1.0000    0.14380   0.47550   0.54600   Biso      1.000     H          0.09894299999999999           
         H28       1.0000    0.59110   0.04040   0.07280   Biso      1.000     H          0.09942100000000001           
         H29       1.0000    0.46130   0.08780   0.01750   Biso      1.000     H          0.098437  
         H30       1.0000    0.23830   0.86100   0.01410   Biso      1.000     H          0.136276  
         H31       1.0000    0.22750   0.95710   0.05330   Biso      1.000     H          0.133464  
         H32       1.0000    0.96170   0.34290   0.50110   Biso      1.000     H          0.137051  
         O1        1.0000    0.98930   0.11907   0.65228   Biso      1.000     O          -0.623168           
         O2        1.0000    0.26640   0.15002   0.68470   Biso      1.000     O          -0.7464729999999999           
         O3        1.0000    0.67260   0.70441   0.17862   Biso      1.000     O          -0.727427           
         O4        1.0000    0.39090   0.66960   0.15820   Biso      1.000     O          -0.646366           
         O5        1.0000    0.51070   0.88093   0.15228   Biso      1.000     O          -0.623169           
         O6        1.0000    0.23360   0.84998   0.18470   Biso      1.000     O          -0.7464729999999999           
         O7        1.0000    0.17260   0.70441   0.32138   Biso      1.000     O          -0.727427           
         O8        1.0000    0.73360   0.84998   0.31530   Biso      1.000     O          -0.7464729999999999           
         O9        1.0000    0.01070   0.88093   0.34772   Biso      1.000     O          -0.623169           
         O10       1.0000    0.32740   0.29559   0.82138   Biso      1.000     O          -0.727427           
         O11       1.0000    0.60910   0.33040   0.84180   Biso      1.000     O          -0.646366           
         O12       1.0000    0.48930   0.11907   0.84772   Biso      1.000     O          -0.623169           
         O13       1.0000    0.76640   0.15002   0.81530   Biso      1.000     O          -0.7464729999999999           
         O14       1.0000    0.10910   0.33040   0.65820   Biso      1.000     O          -0.646366           
         O15       1.0000    0.89090   0.66960   0.34180   Biso      1.000     O          -0.646366           
         O16       1.0000    0.82740   0.29559   0.67862   Biso      1.000     O          -0.727427 