
##########################################################################
#               Crystallographic Information Format file
#               Produced by PyCifRW module
#
#  This is a CIF file.  CIF has been adopted by the International
#  Union of Crystallography as the standard for data archiving and
#  transmission.
#
#  For information on this file format, follow the CIF links at
#  http://www.iucr.org
##########################################################################

data_image0

_cell_length_a                          8.3862
_cell_length_b                          15.0363
_cell_length_c                          15.0363
_cell_angle_alpha                       90
_cell_angle_beta                        90
_cell_angle_gamma                       90
_symmetry_space_group_name_H-M          'P 1'
_symmetry_int_tables_number             1
loop_
  _symmetry_equiv_pos_as_xyz
         'x, y, z' 
loop_
  _atom_site_label
  _atom_site_occupancy
  _atom_site_fract_x
  _atom_site_fract_y
  _atom_site_fract_z
  _atom_site_thermal_displace_type
  _atom_site_B_iso_or_equiv
  _atom_site_type_symbol
  _atom_site_charge
         C1        1.0000    0.32900   0.44480   0.25780   Biso      1.000     C          -0.01857  
         C2        1.0000    0.43430   0.24870   0.57420   Biso      1.000     C          0.14336500000000002           
         C3        1.0000    0.59220   0.26270   0.60110   Biso      1.000     C          -0.160942           
         C4        1.0000    0.70750   0.26700   0.53600   Biso      1.000     C          -0.13206199999999998          
         C5        1.0000    0.67100   0.25780   0.44480   Biso      1.000     C          -0.018571           
         C6        1.0000    0.80190   0.25900   0.37770   Biso      1.000     C          0.564492  
         C7        1.0000    0.81790   0.56290   0.23140   Biso      1.000     C          0.215363  
         C8        1.0000    0.48390   0.41820   0.24700   Biso      1.000     C          -0.208722           
         C9        1.0000    0.59980   0.48350   0.24320   Biso      1.000     C          0.164957  
         C10       1.0000    0.56570   0.57420   0.24870   Biso      1.000     C          0.14336300000000002           
         C11       1.0000    0.40780   0.60110   0.26270   Biso      1.000     C          -0.160942           
         C12       1.0000    0.29250   0.53600   0.26700   Biso      1.000     C          -0.13206199999999998          
         C13       1.0000    0.19810   0.37770   0.25900   Biso      1.000     C          0.564492  
         C14       1.0000    0.31790   0.43710   0.76860   Biso      1.000     C          0.21536100000000002           
         C15       1.0000    0.98390   0.58180   0.75300   Biso      1.000     C          -0.20873200000000003          
         C16       1.0000    0.09980   0.51650   0.75680   Biso      1.000     C          0.164959  
         C17       1.0000    0.06570   0.42580   0.75130   Biso      1.000     C          0.143362  
         C18       1.0000    0.90780   0.39890   0.73730   Biso      1.000     C          -0.160942           
         C19       1.0000    0.79250   0.46400   0.73300   Biso      1.000     C          -0.13206400000000001          
         C20       1.0000    0.82900   0.55520   0.74220   Biso      1.000     C          -0.018561           
         C21       1.0000    0.69810   0.62230   0.74100   Biso      1.000     C          0.564493  
         C22       1.0000    0.23390   0.74700   0.08180   Biso      1.000     C          -0.20873200000000003          
         C23       1.0000    0.34980   0.74320   0.01650   Biso      1.000     C          0.164959  
         C24       1.0000    0.31570   0.74870   0.92580   Biso      1.000     C          0.14336300000000002           
         C25       1.0000    0.40020   0.24320   0.48350   Biso      1.000     C          0.164956  
         C26       1.0000    0.15780   0.76270   0.89890   Biso      1.000     C          -0.160942           
         C27       1.0000    0.51610   0.24700   0.41820   Biso      1.000     C          -0.208721           
         C28       1.0000    0.30190   0.74100   0.62230   Biso      1.000     C          0.564493  
         C29       1.0000    0.43210   0.93710   0.73140   Biso      1.000     C          0.215362  
         C30       1.0000    0.76610   0.08180   0.74700   Biso      1.000     C          -0.208733           
         C31       1.0000    0.65020   0.01650   0.74320   Biso      1.000     C          0.164959  
         C32       1.0000    0.68430   0.92580   0.74870   Biso      1.000     C          0.14336300000000002           
         C33       1.0000    0.84220   0.89890   0.76270   Biso      1.000     C          -0.160942           
         C34       1.0000    0.95750   0.96400   0.76700   Biso      1.000     C          -0.13206400000000001          
         C35       1.0000    0.92100   0.05520   0.75780   Biso      1.000     C          -0.018561           
         C36       1.0000    0.05190   0.12230   0.75900   Biso      1.000     C          0.564491  
         C37       1.0000    0.93210   0.06290   0.26860   Biso      1.000     C          0.215362  
         C38       1.0000    0.26610   0.91820   0.25300   Biso      1.000     C          -0.20873200000000003          
         C39       1.0000    0.15020   0.98350   0.25680   Biso      1.000     C          0.164958  
         C40       1.0000    0.18430   0.07420   0.25130   Biso      1.000     C          0.143362  
         C41       1.0000    0.34220   0.10110   0.23730   Biso      1.000     C          -0.160943           
         C42       1.0000    0.45750   0.03600   0.23300   Biso      1.000     C          -0.13206400000000001          
         C43       1.0000    0.42100   0.94480   0.24220   Biso      1.000     C          -0.018561           
         C44       1.0000    0.55190   0.87770   0.24100   Biso      1.000     C          0.564492  
         C45       1.0000    0.68210   0.76860   0.43710   Biso      1.000     C          0.21536100000000002           
         C46       1.0000    0.01610   0.75300   0.58180   Biso      1.000     C          -0.208731           
         C47       1.0000    0.90020   0.75680   0.51650   Biso      1.000     C          0.164958  
         C48       1.0000    0.93430   0.75130   0.42580   Biso      1.000     C          0.14336300000000002           
         C49       1.0000    0.09220   0.73730   0.39890   Biso      1.000     C          -0.160942           
         C50       1.0000    0.20750   0.73300   0.46400   Biso      1.000     C          -0.13206500000000002          
         C51       1.0000    0.17100   0.74220   0.55520   Biso      1.000     C          -0.018562000000000002         
         C52       1.0000    0.18210   0.23140   0.56290   Biso      1.000     C          0.215362  
         C53       1.0000    0.04250   0.76700   0.96400   Biso      1.000     C          -0.13206500000000002          
         C54       1.0000    0.56790   0.73140   0.93710   Biso      1.000     C          0.21536100000000002           
         C55       1.0000    0.94810   0.75900   0.12230   Biso      1.000     C          0.564492  
         C56       1.0000    0.44810   0.24100   0.87770   Biso      1.000     C          0.564492  
         C57       1.0000    0.54250   0.23300   0.03600   Biso      1.000     C          -0.13206700000000002          
         C58       1.0000    0.65780   0.23730   0.10110   Biso      1.000     C          -0.160937           
         C59       1.0000    0.07900   0.75780   0.05520   Biso      1.000     C          -0.018562000000000002         
         C60       1.0000    0.57900   0.24220   0.94480   Biso      1.000     C          -0.01857  
         C61       1.0000    0.84980   0.25680   0.98350   Biso      1.000     C          0.164957  
         C62       1.0000    0.73390   0.25300   0.91820   Biso      1.000     C          -0.208721           
         C63       1.0000    0.06790   0.26860   0.06290   Biso      1.000     C          0.215362  
         C64       1.0000    0.81570   0.25130   0.07420   Biso      1.000     C          0.143362  
         H1        1.0000    0.31850   0.56850   0.77380   Biso      1.000     H          0.317336  
         H2        1.0000    0.50700   0.36100   0.24200   Biso      1.000     H          0.13705799999999999           
         H3        1.0000    0.81850   0.43150   0.22620   Biso      1.000     H          0.317336  
         H4        1.0000    0.92540   0.57710   0.22580   Biso      1.000     H          0.096276  
         H5        1.0000    0.88400   0.33700   0.73100   Biso      1.000     H          0.13364600000000001           
         H6        1.0000    0.68700   0.44900   0.72100   Biso      1.000     H          0.113072  
         H7        1.0000    0.00700   0.63900   0.75800   Biso      1.000     H          0.137059  
         H8        1.0000    0.42540   0.42290   0.77420   Biso      1.000     H          0.096276  
         H9        1.0000    0.67540   0.72580   0.92290   Biso      1.000     H          0.096276  
         H10       1.0000    0.93700   0.77900   0.94900   Biso      1.000     H          0.113073  
         H11       1.0000    0.25700   0.74200   0.13900   Biso      1.000     H          0.137059  
         H12       1.0000    0.56850   0.72620   0.06850   Biso      1.000     H          0.317336  
         H13       1.0000    0.38400   0.66300   0.26900   Biso      1.000     H          0.13364600000000001           
         H14       1.0000    0.63400   0.23100   0.16300   Biso      1.000     H          0.13364600000000001           
         H15       1.0000    0.43700   0.22100   0.05100   Biso      1.000     H          0.113073  
         H16       1.0000    0.75700   0.25800   0.86100   Biso      1.000     H          0.13705799999999999           
         H17       1.0000    0.06850   0.27380   0.93150   Biso      1.000     H          0.317336  
         H18       1.0000    0.17540   0.27420   0.07710   Biso      1.000     H          0.096276  
         H19       1.0000    0.13400   0.76900   0.83700   Biso      1.000     H          0.13364600000000001           
         H20       1.0000    0.07460   0.22580   0.57710   Biso      1.000     H          0.096276  
         H21       1.0000    0.18700   0.55100   0.27900   Biso      1.000     H          0.113072  
         H22       1.0000    0.49300   0.24200   0.36100   Biso      1.000     H          0.13705799999999999           
         H23       1.0000    0.86600   0.83700   0.76900   Biso      1.000     H          0.13364600000000001           
         H24       1.0000    0.18150   0.22620   0.43150   Biso      1.000     H          0.317336  
         H25       1.0000    0.74300   0.13900   0.74200   Biso      1.000     H          0.137059  
         H26       1.0000    0.43150   0.06850   0.72620   Biso      1.000     H          0.317335  
         H27       1.0000    0.32460   0.92290   0.72580   Biso      1.000     H          0.096276  
         H28       1.0000    0.36600   0.16300   0.23100   Biso      1.000     H          0.13364600000000001           
         H29       1.0000    0.56300   0.05100   0.22100   Biso      1.000     H          0.113072  
         H30       1.0000    0.24300   0.86100   0.25800   Biso      1.000     H          0.137059  
         H31       1.0000    0.06300   0.94900   0.77900   Biso      1.000     H          0.113073  
         H32       1.0000    0.82460   0.07710   0.27420   Biso      1.000     H          0.096276  
         H33       1.0000    0.11600   0.73100   0.33700   Biso      1.000     H          0.13364600000000001           
         H34       1.0000    0.31300   0.72100   0.44900   Biso      1.000     H          0.113072  
         H35       1.0000    0.99300   0.75800   0.63900   Biso      1.000     H          0.137059  
         H36       1.0000    0.68150   0.77380   0.56850   Biso      1.000     H          0.317336  
         H37       1.0000    0.57460   0.77420   0.42290   Biso      1.000     H          0.096276  
         H38       1.0000    0.61600   0.26900   0.66300   Biso      1.000     H          0.13364600000000001           
         H39       1.0000    0.81300   0.27900   0.55100   Biso      1.000     H          0.113072  
         H40       1.0000    0.93150   0.93150   0.27380   Biso      1.000     H          0.317336  
         N1        1.0000    0.23740   0.23190   0.47910   Biso      1.000     N          -0.280082           
         N2        1.0000    0.29460   0.23980   0.62252   Biso      1.000     N          -0.351552           
         N3        1.0000    0.76260   0.47910   0.23190   Biso      1.000     N          -0.28008299999999997          
         N4        1.0000    0.70540   0.62252   0.23980   Biso      1.000     N          -0.351552           
         N5        1.0000    0.26260   0.52090   0.76810   Biso      1.000     N          -0.280082           
         N6        1.0000    0.20540   0.37748   0.76020   Biso      1.000     N          -0.351552           
         N7        1.0000    0.51260   0.73190   0.02090   Biso      1.000     N          -0.28008299999999997          
         N8        1.0000    0.48740   0.02090   0.73190   Biso      1.000     N          -0.28008299999999997          
         N9        1.0000    0.01260   0.26810   0.97910   Biso      1.000     N          -0.280082           
         N10       1.0000    0.95540   0.26020   0.12252   Biso      1.000     N          -0.351552           
         N11       1.0000    0.54460   0.87748   0.73980   Biso      1.000     N          -0.351552           
         N12       1.0000    0.98740   0.97910   0.26810   Biso      1.000     N          -0.280082           
         N13       1.0000    0.79460   0.76020   0.37748   Biso      1.000     N          -0.351552           
         N14       1.0000    0.04460   0.12252   0.26020   Biso      1.000     N          -0.351553           
         N15       1.0000    0.45540   0.73980   0.87748   Biso      1.000     N          -0.351552           
         N16       1.0000    0.73740   0.76810   0.52090   Biso      1.000     N          -0.280082           
         Ni1       1.0000    0.00000   0.25580   0.25580   Biso      1.000     Ni          0.703489  
         Ni2       1.0000    0.75000   0.75580   0.24420   Biso      1.000     Ni          0.703494  
         Ni3       1.0000    0.25000   0.24420   0.75580   Biso      1.000     Ni          0.703491  
         Ni4       1.0000    0.50000   0.74420   0.74420   Biso      1.000     Ni          0.703492  
         O1        1.0000    0.51530   0.79588   0.24495   Biso      1.000     O          -0.538529           
         O2        1.0000    0.69520   0.90034   0.23930   Biso      1.000     O          -0.546851           
         O3        1.0000    0.26530   0.74495   0.70412   Biso      1.000     O          -0.5385300000000001           
         O4        1.0000    0.44520   0.73930   0.59966   Biso      1.000     O          -0.546846           
         O5        1.0000    0.76530   0.25505   0.29588   Biso      1.000     O          -0.538528           
         O6        1.0000    0.94520   0.26070   0.40034   Biso      1.000     O          -0.546845           
         O7        1.0000    0.23470   0.29588   0.25505   Biso      1.000     O          -0.5385270000000001           
         O8        1.0000    0.05480   0.40034   0.26070   Biso      1.000     O          -0.54685  
         O9        1.0000    0.73470   0.70412   0.74495   Biso      1.000     O          -0.538528           
         O10       1.0000    0.55480   0.59966   0.73930   Biso      1.000     O          -0.546852           
         O11       1.0000    0.98470   0.75505   0.20412   Biso      1.000     O          -0.5385300000000001           
         O12       1.0000    0.80480   0.76070   0.09966   Biso      1.000     O          -0.546846           
         O13       1.0000    0.48470   0.24495   0.79588   Biso      1.000     O          -0.538528           
         O14       1.0000    0.30480   0.23930   0.90034   Biso      1.000     O          -0.546844           
         O15       1.0000    0.19520   0.09966   0.76070   Biso      1.000     O          -0.54685  
         O16       1.0000    0.01530   0.20412   0.75505   Biso      1.000     O          -0.538528 