
##########################################################################
#               Crystallographic Information Format file
#               Produced by PyCifRW module
#
#  This is a CIF file.  CIF has been adopted by the International
#  Union of Crystallography as the standard for data archiving and
#  transmission.
#
#  For information on this file format, follow the CIF links at
#  http://www.iucr.org
##########################################################################

data_image0

_cell_length_a                          24.598
_cell_length_b                          7.5305
_cell_length_c                          6.5472
_cell_angle_alpha                       90
_cell_angle_beta                        106.863
_cell_angle_gamma                       90
_symmetry_space_group_name_H-M          'P 1'
_symmetry_int_tables_number             1
loop_
  _symmetry_equiv_pos_as_xyz
         'x, y, z' 
loop_
  _atom_site_label
  _atom_site_occupancy
  _atom_site_fract_x
  _atom_site_fract_y
  _atom_site_fract_z
  _atom_site_thermal_displace_type
  _atom_site_B_iso_or_equiv
  _atom_site_type_symbol
  _atom_site_charge
         Al1       1.0000    0.00000   0.00000   0.00000   Biso      1.000     Al          1.650046  
         Al2       1.0000    0.50000   0.50000   0.50000   Biso      1.000     Al          1.6502599999999998  
         Al3       1.0000    0.50000   0.50000   0.00000   Biso      1.000     Al          1.650232  
         Al4       1.0000    0.00000   0.00000   0.50000   Biso      1.000     Al          1.6500259999999998  
         C1        1.0000    0.18350   0.81200   0.56800   Biso      1.000     C          -0.022384           
         C2        1.0000    0.66100   0.79400   0.69300   Biso      1.000     C          0.054153999999999994          
         C3        1.0000    0.25800   0.29700   0.92000   Biso      1.000     C          0.053230999999999994          
         C4        1.0000    0.41300   0.32400   0.17200   Biso      1.000     C          0.64102   
         C5        1.0000    0.14420   0.76900   0.35700   Biso      1.000     C          -0.07090199999999999          
         C6        1.0000    0.21970   0.31800   0.71000   Biso      1.000     C          -0.056486           
         C7        1.0000    0.28030   0.81800   0.79000   Biso      1.000     C          -0.056639999999999996         
         C8        1.0000    0.08700   0.82400   0.32800   Biso      1.000     C          0.6409239999999999  
         C9        1.0000    0.24200   0.79700   0.58000   Biso      1.000     C          0.053252  
         C10       1.0000    0.16100   0.70600   0.19300   Biso      1.000     C          0.054266999999999996          
         C11       1.0000    0.31650   0.31200   0.93200   Biso      1.000     C          -0.022446999999999998         
         C12       1.0000    0.35580   0.26900   0.14300   Biso      1.000     C          -0.07088799999999999          
         C13       1.0000    0.64420   0.26900   0.35700   Biso      1.000     C          -0.07094500000000001          
         C14       1.0000    0.68350   0.31200   0.56800   Biso      1.000     C          -0.02235  
         C15       1.0000    0.78030   0.31800   0.79000   Biso      1.000     C          -0.056351           
         C16       1.0000    0.58700   0.32400   0.32800   Biso      1.000     C          0.640937  
         C17       1.0000    0.74200   0.29700   0.58000   Biso      1.000     C          0.053001  
         C18       1.0000    0.66100   0.20600   0.19300   Biso      1.000     C          0.054194000000000006          
         C19       1.0000    0.85580   0.76900   0.14300   Biso      1.000     C          -0.071009           
         C20       1.0000    0.81650   0.81200   0.93200   Biso      1.000     C          -0.022317           
         C21       1.0000    0.71970   0.81800   0.71000   Biso      1.000     C          -0.056053           
         C22       1.0000    0.91300   0.82400   0.17200   Biso      1.000     C          0.640925  
         C23       1.0000    0.74200   0.70300   0.08000   Biso      1.000     C          0.052971000000000004          
         C24       1.0000    0.58700   0.67600   0.82800   Biso      1.000     C          0.6409    
         C25       1.0000    0.68350   0.68800   0.06800   Biso      1.000     C          -0.022304           
         C26       1.0000    0.75800   0.79700   0.92000   Biso      1.000     C          0.053012000000000004          
         C27       1.0000    0.85580   0.23100   0.64300   Biso      1.000     C          -0.071008           
         C28       1.0000    0.81650   0.18800   0.43200   Biso      1.000     C          -0.022387           
         C29       1.0000    0.71970   0.18200   0.21000   Biso      1.000     C          -0.056224           
         C30       1.0000    0.91300   0.17600   0.67200   Biso      1.000     C          0.641073  
         C31       1.0000    0.75800   0.20300   0.42000   Biso      1.000     C          0.053019000000000004          
         C32       1.0000    0.83900   0.29400   0.80700   Biso      1.000     C          0.054144000000000005          
         C33       1.0000    0.35580   0.73100   0.64300   Biso      1.000     C          -0.070826           
         C34       1.0000    0.78030   0.68200   0.29000   Biso      1.000     C          -0.056188999999999996         
         C35       1.0000    0.21970   0.68200   0.21000   Biso      1.000     C          -0.0564   
         C36       1.0000    0.41300   0.67600   0.67200   Biso      1.000     C          0.641005  
         C37       1.0000    0.31650   0.68800   0.43200   Biso      1.000     C          -0.022616           
         C38       1.0000    0.33900   0.79400   0.80700   Biso      1.000     C          0.054465999999999994          
         C39       1.0000    0.14420   0.23100   0.85700   Biso      1.000     C          -0.070862           
         C40       1.0000    0.18350   0.18800   0.06800   Biso      1.000     C          -0.022387           
         C41       1.0000    0.28030   0.18200   0.29000   Biso      1.000     C          -0.056409           
         C42       1.0000    0.08700   0.17600   0.82800   Biso      1.000     C          0.641063  
         C43       1.0000    0.24200   0.20300   0.08000   Biso      1.000     C          0.053247  
         C44       1.0000    0.16100   0.29400   0.69300   Biso      1.000     C          0.054329999999999996          
         C45       1.0000    0.33900   0.20600   0.30700   Biso      1.000     C          0.054428  
         C46       1.0000    0.64420   0.73100   0.85700   Biso      1.000     C          -0.07095800000000001          
         C47       1.0000    0.25800   0.70300   0.42000   Biso      1.000     C          0.053212  
         C48       1.0000    0.83900   0.70600   0.30700   Biso      1.000     C          0.054158000000000005          
         O1        1.0000    0.00000   0.90100   0.75000   Biso      1.000     O          -0.83352  
         O2        1.0000    0.43220   0.36180   0.01600   Biso      1.000     O          -0.485501           
         O3        1.0000    0.45350   0.32500   0.34600   Biso      1.000     O          -0.521378           
         O4        1.0000    0.50000   0.40100   0.75000   Biso      1.000     O          -0.8346040000000001           
         O5        1.0000    0.95350   0.17500   0.84600   Biso      1.000     O          -0.521037           
         O6        1.0000    0.95350   0.82500   0.34600   Biso      1.000     O          -0.521329           
         O7        1.0000    0.56780   0.36180   0.48400   Biso      1.000     O          -0.485158           
         O8        1.0000    0.54650   0.32500   0.15400   Biso      1.000     O          -0.5210060000000001           
         O9        1.0000    0.00000   0.09900   0.25000   Biso      1.000     O          -0.833528           
         O10       1.0000    0.06780   0.86180   0.48400   Biso      1.000     O          -0.48553100000000005          
         O11       1.0000    0.04650   0.82500   0.15400   Biso      1.000     O          -0.521388           
         O12       1.0000    0.56780   0.63820   0.98400   Biso      1.000     O          -0.48528699999999997          
         O13       1.0000    0.54650   0.67500   0.65400   Biso      1.000     O          -0.5212439999999999           
         O14       1.0000    0.06780   0.13820   0.98400   Biso      1.000     O          -0.48580100000000004          
         O15       1.0000    0.04650   0.17500   0.65400   Biso      1.000     O          -0.521489           
         O16       1.0000    0.43220   0.63820   0.51600   Biso      1.000     O          -0.485411           
         O17       1.0000    0.45350   0.67500   0.84600   Biso      1.000     O          -0.521284           
         O18       1.0000    0.93220   0.13820   0.51600   Biso      1.000     O          -0.48540200000000006          
         O19       1.0000    0.93220   0.86180   0.01600   Biso      1.000     O          -0.48575  
         O20       1.0000    0.50000   0.59900   0.25000   Biso      1.000     O          -0.834506 