
##########################################################################
#               Crystallographic Information Format file
#               Produced by PyCifRW module
#
#  This is a CIF file.  CIF has been adopted by the International
#  Union of Crystallography as the standard for data archiving and
#  transmission.
#
#  For information on this file format, follow the CIF links at
#  http://www.iucr.org
##########################################################################

data_image0

_cell_length_a                          11.8113
_cell_length_b                          13.8479
_cell_length_c                          16.3344
_cell_angle_alpha                       90
_cell_angle_beta                        90
_cell_angle_gamma                       112.851
_symmetry_space_group_name_H-M          'P 1'
_symmetry_int_tables_number             1
loop_
  _symmetry_equiv_pos_as_xyz
         'x, y, z' 
loop_
  _atom_site_label
  _atom_site_occupancy
  _atom_site_fract_x
  _atom_site_fract_y
  _atom_site_fract_z
  _atom_site_thermal_displace_type
  _atom_site_B_iso_or_equiv
  _atom_site_type_symbol
  _atom_site_charge
         C1        1.0000    0.17640   0.37880   0.28973   Biso      1.000     C          -0.166292           
         C2        1.0000    0.16690   0.51890   0.39501   Biso      1.000     C          -0.153002           
         C3        1.0000    0.24380   0.50720   0.46616   Biso      1.000     C          0.678538  
         C4        1.0000    0.49710   0.83140   0.10368   Biso      1.000     C          0.655185  
         C5        1.0000    0.76430   0.83410   0.17351   Biso      1.000     C          0.646041  
         C6        1.0000    0.80710   0.93660   0.33940   Biso      1.000     C          0.648817  
         C7        1.0000    0.94220   0.09520   0.19389   Biso      1.000     C          0.678109  
         C8        1.0000    0.79420   0.21870   0.14110   Biso      1.000     C          0.630916  
         C9        1.0000    0.59760   0.91570   0.15254   Biso      1.000     C          -0.147464           
         C10       1.0000    0.67640   0.87880   0.21027   Biso      1.000     C          -0.16630699999999998          
         C11       1.0000    0.74370   0.96930   0.26968   Biso      1.000     C          -0.143269           
         C12       1.0000    0.81710   0.07750   0.22989   Biso      1.000     C          -0.16134400000000002          
         C13       1.0000    0.66690   0.01890   0.10499   Biso      1.000     C          -0.153007           
         C14       1.0000    0.74380   0.00720   0.03384   Biso      1.000     C          0.678512  
         C15       1.0000    0.00290   0.66860   0.60368   Biso      1.000     C          0.655193  
         C16       1.0000    0.73570   0.66590   0.67351   Biso      1.000     C          0.646068  
         C17       1.0000    0.69290   0.56340   0.83940   Biso      1.000     C          0.648781  
         C18       1.0000    0.55780   0.40480   0.69389   Biso      1.000     C          0.678106  
         C19       1.0000    0.23410   0.60500   0.33016   Biso      1.000     C          -0.147501           
         C20       1.0000    0.70580   0.28130   0.64110   Biso      1.000     C          0.630892  
         C21       1.0000    0.31710   0.57750   0.27011   Biso      1.000     C          -0.161304           
         C22       1.0000    0.09760   0.41570   0.34746   Biso      1.000     C          -0.147452           
         C23       1.0000    0.50290   0.16860   0.89632   Biso      1.000     C          0.655184  
         C24       1.0000    0.23570   0.16590   0.82649   Biso      1.000     C          0.6460239999999999  
         C25       1.0000    0.19290   0.06340   0.66060   Biso      1.000     C          0.648907  
         C26       1.0000    0.05780   0.90480   0.80611   Biso      1.000     C          0.67812   
         C27       1.0000    0.20580   0.78130   0.85890   Biso      1.000     C          0.630919  
         C28       1.0000    0.40240   0.08430   0.84746   Biso      1.000     C          -0.147452           
         C29       1.0000    0.32360   0.12120   0.78973   Biso      1.000     C          -0.166325           
         C30       1.0000    0.25630   0.03070   0.73032   Biso      1.000     C          -0.143304           
         C31       1.0000    0.18290   0.92250   0.77011   Biso      1.000     C          -0.16133699999999998          
         C32       1.0000    0.26590   0.89500   0.83016   Biso      1.000     C          -0.14748599999999998          
         C33       1.0000    0.33310   0.98110   0.89501   Biso      1.000     C          -0.15300999999999998          
         C34       1.0000    0.25620   0.99280   0.96616   Biso      1.000     C          0.678513  
         C35       1.0000    0.99710   0.33140   0.39632   Biso      1.000     C          0.6551710000000001  
         C36       1.0000    0.26430   0.33410   0.32649   Biso      1.000     C          0.646065  
         C37       1.0000    0.30710   0.43660   0.16060   Biso      1.000     C          0.648783  
         C38       1.0000    0.44220   0.59520   0.30611   Biso      1.000     C          0.67811   
         C39       1.0000    0.29420   0.71870   0.35890   Biso      1.000     C          0.630894  
         C40       1.0000    0.24370   0.46930   0.23032   Biso      1.000     C          -0.14329  
         C41       1.0000    0.90240   0.58430   0.65254   Biso      1.000     C          -0.147453           
         C42       1.0000    0.73410   0.10500   0.16984   Biso      1.000     C          -0.147483           
         C43       1.0000    0.75630   0.53070   0.76968   Biso      1.000     C          -0.143283           
         C44       1.0000    0.68290   0.42250   0.72989   Biso      1.000     C          -0.161305           
         C45       1.0000    0.76590   0.39500   0.66984   Biso      1.000     C          -0.147497           
         C46       1.0000    0.83310   0.48110   0.60499   Biso      1.000     C          -0.153005           
         C47       1.0000    0.75620   0.49280   0.53384   Biso      1.000     C          0.678534  
         C48       1.0000    0.82360   0.62120   0.71027   Biso      1.000     C          -0.166298           
         H1        1.0000    0.67620   0.98050   0.29740   Biso      1.000     H          0.11214   
         H2        1.0000    0.83360   0.12850   0.27450   Biso      1.000     H          0.11448399999999999           
         H3        1.0000    0.66680   0.10540   0.20480   Biso      1.000     H          0.12033599999999998           
         H4        1.0000    0.60340   0.03900   0.08070   Biso      1.000     H          0.131934  
         H5        1.0000    0.82380   0.51950   0.79740   Biso      1.000     H          0.11219200000000001           
         H6        1.0000    0.88180   0.67730   0.74370   Biso      1.000     H          0.124654  
         H7        1.0000    0.61820   0.82270   0.24370   Biso      1.000     H          0.12458399999999999           
         H8        1.0000    0.66640   0.37150   0.77450   Biso      1.000     H          0.114551  
         H9        1.0000    0.89660   0.46100   0.58070   Biso      1.000     H          0.131967  
         H10       1.0000    0.95080   0.56240   0.69160   Biso      1.000     H          0.126656  
         H11       1.0000    0.54920   0.93760   0.19160   Biso      1.000     H          0.126616  
         H12       1.0000    0.83320   0.39460   0.70480   Biso      1.000     H          0.120403  
         H13       1.0000    0.16680   0.60540   0.29520   Biso      1.000     H          0.12041199999999999           
         H14       1.0000    0.10340   0.53900   0.41930   Biso      1.000     H          0.131973  
         H15       1.0000    0.38180   0.17730   0.75630   Biso      1.000     H          0.124572  
         H16       1.0000    0.32380   0.01950   0.70260   Biso      1.000     H          0.11219000000000001           
         H17       1.0000    0.16640   0.87150   0.72550   Biso      1.000     H          0.11448299999999999           
         H18       1.0000    0.33320   0.89460   0.79520   Biso      1.000     H          0.120335  
         H19       1.0000    0.45080   0.06240   0.80840   Biso      1.000     H          0.126613  
         H20       1.0000    0.04920   0.43760   0.30840   Biso      1.000     H          0.126662  
         H21       1.0000    0.11820   0.32270   0.25630   Biso      1.000     H          0.124661  
         H22       1.0000    0.17620   0.48050   0.20260   Biso      1.000     H          0.112196  
         H23       1.0000    0.33360   0.62850   0.22550   Biso      1.000     H          0.114549  
         H24       1.0000    0.39660   0.96100   0.91930   Biso      1.000     H          0.131941  
         O1        1.0000    0.77170   0.84071   0.35371   Biso      1.000     O          -0.558938           
         O2        1.0000    0.53000   0.60497   0.25669   Biso      1.000     O          -0.566008           
         O3        1.0000    0.45790   0.60547   0.38218   Biso      1.000     O          -0.523107           
         O4        1.0000    0.37000   0.78228   0.31233   Biso      1.000     O          -0.524051           
         O5        1.0000    0.25590   0.74600   0.42397   Biso      1.000     O          -0.6278239999999999           
         O6        1.0000    0.43160   0.86377   0.05954   Biso      1.000     O          -0.539886           
         O7        1.0000    0.26580   0.42608   0.47163   Biso      1.000     O          -0.486098           
         O8        1.0000    0.47390   0.73638   0.11484   Biso      1.000     O          -0.58644  
         O9        1.0000    0.72260   0.74513   0.13906   Biso      1.000     O          -0.627259           
         O10       1.0000    0.38210   0.50508   0.11459   Biso      1.000     O          -0.6403979999999999           
         O11       1.0000    0.87710   0.88602   0.18268   Biso      1.000     O          -0.533709           
         O12       1.0000    0.27790   0.57862   0.52129   Biso      1.000     O          -0.614111           
         O13       1.0000    0.27170   0.34071   0.14629   Biso      1.000     O          -0.558936           
         O14       1.0000    0.11790   0.99492   0.61459   Biso      1.000     O          -0.640426           
         O15       1.0000    0.22260   0.24513   0.36094   Biso      1.000     O          -0.627183           
         O16       1.0000    0.27740   0.25487   0.86094   Biso      1.000     O          -0.6272439999999999           
         O17       1.0000    0.12290   0.11398   0.81732   Biso      1.000     O          -0.533788           
         O18       1.0000    0.22830   0.15929   0.64629   Biso      1.000     O          -0.558453           
         O19       1.0000    0.97000   0.89503   0.75669   Biso      1.000     O          -0.56629  
         O20       1.0000    0.04210   0.89453   0.88218   Biso      1.000     O          -0.523157           
         O21       1.0000    0.13000   0.71772   0.81233   Biso      1.000     O          -0.524187           
         O22       1.0000    0.24410   0.75400   0.92397   Biso      1.000     O          -0.6278699999999999           
         O23       1.0000    0.22210   0.92138   0.02129   Biso      1.000     O          -0.61416  
         O24       1.0000    0.23420   0.07392   0.97163   Biso      1.000     O          -0.486188           
         O25       1.0000    0.93160   0.36377   0.44046   Biso      1.000     O          -0.539924           
         O26       1.0000    0.88210   0.00508   0.38541   Biso      1.000     O          -0.640574           
         O27       1.0000    0.97390   0.23638   0.38516   Biso      1.000     O          -0.586367           
         O28       1.0000    0.37710   0.38602   0.31732   Biso      1.000     O          -0.533529           
         O29       1.0000    0.03000   0.10497   0.24331   Biso      1.000     O          -0.5662520000000001           
         O30       1.0000    0.56840   0.13623   0.94046   Biso      1.000     O          -0.53988  
         O31       1.0000    0.87000   0.28228   0.18767   Biso      1.000     O          -0.524189           
         O32       1.0000    0.52610   0.26362   0.88516   Biso      1.000     O          -0.58644  
         O33       1.0000    0.73420   0.57392   0.52837   Biso      1.000     O          -0.486104           
         O34       1.0000    0.95790   0.10547   0.11782   Biso      1.000     O          -0.523174           
         O35       1.0000    0.74410   0.25400   0.57603   Biso      1.000     O          -0.627833           
         O36       1.0000    0.63000   0.21772   0.68767   Biso      1.000     O          -0.524095           
         O37       1.0000    0.54210   0.39453   0.61782   Biso      1.000     O          -0.523113           
         O38       1.0000    0.47000   0.39503   0.74331   Biso      1.000     O          -0.5660470000000001           
         O39       1.0000    0.61790   0.49492   0.88541   Biso      1.000     O          -0.640392           
         O40       1.0000    0.72210   0.42138   0.47871   Biso      1.000     O          -0.614118           
         O41       1.0000    0.62290   0.61398   0.68268   Biso      1.000     O          -0.533535           
         O42       1.0000    0.77740   0.75487   0.63906   Biso      1.000     O          -0.6271899999999999           
         O43       1.0000    0.02610   0.76362   0.61484   Biso      1.000     O          -0.5864020000000001           
         O44       1.0000    0.06840   0.63623   0.55954   Biso      1.000     O          -0.539906           
         O45       1.0000    0.76580   0.92608   0.02837   Biso      1.000     O          -0.48618199999999995          
         O46       1.0000    0.77790   0.07862   0.97871   Biso      1.000     O          -0.614158           
         O47       1.0000    0.75590   0.24600   0.07603   Biso      1.000     O          -0.627869           
         O48       1.0000    0.72830   0.65929   0.85371   Biso      1.000     O          -0.558933           
         Zn1       1.0000    0.74454   0.28345   0.45491   Biso      1.000     Zn          1.051231  
         Zn2       1.0000    0.94812   0.87276   0.63131   Biso      1.000     Zn          1.0969879999999999  
         Zn3       1.0000    0.89669   0.90022   0.95262   Biso      1.000     Zn          0.930832  
         Zn4       1.0000    0.75546   0.21655   0.95491   Biso      1.000     Zn          1.0511270000000001  
         Zn5       1.0000    0.55188   0.62724   0.13131   Biso      1.000     Zn          1.0968229999999999  
         Zn6       1.0000    0.10331   0.09978   0.04738   Biso      1.000     Zn          0.930826  
         Zn7       1.0000    0.25546   0.71655   0.54509   Biso      1.000     Zn          1.0511979999999999  
         Zn8       1.0000    0.05188   0.12724   0.36869   Biso      1.000     Zn          1.096842  
         Zn9       1.0000    0.24454   0.78345   0.04509   Biso      1.000     Zn          1.0512110000000001  
         Zn10      1.0000    0.44812   0.37276   0.86869   Biso      1.000     Zn          1.0968280000000001  
         Zn11      1.0000    0.39669   0.40022   0.54738   Biso      1.000     Zn          0.931017  
         Zn12      1.0000    0.60331   0.59978   0.45262   Biso      1.000     Zn          0.930983 