
##########################################################################
#               Crystallographic Information Format file
#               Produced by PyCifRW module
#
#  This is a CIF file.  CIF has been adopted by the International
#  Union of Crystallography as the standard for data archiving and
#  transmission.
#
#  For information on this file format, follow the CIF links at
#  http://www.iucr.org
##########################################################################

data_image0

_cell_length_a                          13.9017
_cell_length_b                          13.9017
_cell_length_c                          13.9017
_cell_angle_alpha                       108.017
_cell_angle_beta                        108.017
_cell_angle_gamma                       108.017
_symmetry_space_group_name_H-M          'P 1'
_symmetry_int_tables_number             1
loop_
  _symmetry_equiv_pos_as_xyz
         'x, y, z' 
loop_
  _atom_site_label
  _atom_site_occupancy
  _atom_site_fract_x
  _atom_site_fract_y
  _atom_site_fract_z
  _atom_site_thermal_displace_type
  _atom_site_B_iso_or_equiv
  _atom_site_type_symbol
  _atom_site_charge
         C1        1.0000    0.39500   0.39530   0.69930   Biso      1.000     C          0.146515  
         C2        1.0000    0.16360   0.78680   0.81250   Biso      1.000     C          -0.182364           
         C3        1.0000    0.24010   0.89770   0.88190   Biso      1.000     C          -0.100746           
         C4        1.0000    0.34860   0.92860   0.95970   Biso      1.000     C          -0.105611           
         C5        1.0000    0.38310   0.84860   0.97070   Biso      1.000     C          -0.19466  
         C6        1.0000    0.30570   0.73500   0.90070   Biso      1.000     C          0.146733  
         C7        1.0000    0.21540   0.55370   0.81140   Biso      1.000     C          0.356759  
         C8        1.0000    0.18820   0.43130   0.77650   Biso      1.000     C          -0.238494           
         C9        1.0000    0.21890   0.31050   0.62330   Biso      1.000     C          0.081184  
         C10       1.0000    0.70520   0.82280   0.19740   Biso      1.000     C          0.147738  
         C11       1.0000    0.78680   0.81250   0.16360   Biso      1.000     C          -0.182362           
         C12       1.0000    0.89770   0.88190   0.24010   Biso      1.000     C          -0.100746           
         C13       1.0000    0.92860   0.95970   0.34860   Biso      1.000     C          -0.105611           
         C14       1.0000    0.19740   0.70520   0.82280   Biso      1.000     C          0.147739  
         C15       1.0000    0.84860   0.97070   0.38310   Biso      1.000     C          -0.194659           
         C16       1.0000    0.55370   0.81140   0.21540   Biso      1.000     C          0.356758  
         C17       1.0000    0.43130   0.77650   0.18820   Biso      1.000     C          -0.23849299999999998          
         C18       1.0000    0.31050   0.62330   0.21890   Biso      1.000     C          0.081184  
         C19       1.0000    0.39530   0.69930   0.39500   Biso      1.000     C          0.146513  
         C20       1.0000    0.82280   0.19740   0.70520   Biso      1.000     C          0.147733  
         C21       1.0000    0.81250   0.16360   0.78680   Biso      1.000     C          -0.182362           
         C22       1.0000    0.88190   0.24010   0.89770   Biso      1.000     C          -0.100746           
         C23       1.0000    0.95970   0.34860   0.92860   Biso      1.000     C          -0.105611           
         C24       1.0000    0.69930   0.39500   0.39530   Biso      1.000     C          0.146514  
         C25       1.0000    0.62330   0.21890   0.31050   Biso      1.000     C          0.081183  
         C26       1.0000    0.77650   0.18820   0.43130   Biso      1.000     C          -0.23849299999999998          
         C27       1.0000    0.81140   0.21540   0.55370   Biso      1.000     C          0.35675999999999997           
         C28       1.0000    0.73500   0.90070   0.30570   Biso      1.000     C          0.146733  
         C29       1.0000    0.30070   0.60500   0.60470   Biso      1.000     C          0.146515  
         C30       1.0000    0.37670   0.78110   0.68950   Biso      1.000     C          0.081183  
         C31       1.0000    0.22350   0.81180   0.56870   Biso      1.000     C          -0.238494           
         C32       1.0000    0.80260   0.29480   0.17720   Biso      1.000     C          0.14773699999999998           
         C33       1.0000    0.83640   0.21320   0.18750   Biso      1.000     C          -0.182363           
         C34       1.0000    0.75990   0.10230   0.11810   Biso      1.000     C          -0.100746           
         C35       1.0000    0.65140   0.07140   0.04030   Biso      1.000     C          -0.105611           
         C36       1.0000    0.61690   0.15140   0.02930   Biso      1.000     C          -0.19466  
         C37       1.0000    0.69430   0.26500   0.09930   Biso      1.000     C          0.146733  
         C38       1.0000    0.78460   0.44630   0.18860   Biso      1.000     C          0.356757  
         C39       1.0000    0.81180   0.56870   0.22350   Biso      1.000     C          -0.238494           
         C40       1.0000    0.78110   0.68950   0.37670   Biso      1.000     C          0.081184  
         C41       1.0000    0.60500   0.60470   0.30070   Biso      1.000     C          0.146514  
         C42       1.0000    0.29480   0.17720   0.80260   Biso      1.000     C          0.147738  
         C43       1.0000    0.21320   0.18750   0.83640   Biso      1.000     C          -0.182363           
         C44       1.0000    0.10230   0.11810   0.75990   Biso      1.000     C          -0.100746           
         C45       1.0000    0.07140   0.04030   0.65140   Biso      1.000     C          -0.105611           
         C46       1.0000    0.15140   0.02930   0.61690   Biso      1.000     C          -0.194659           
         C47       1.0000    0.26500   0.09930   0.69430   Biso      1.000     C          0.146733  
         C48       1.0000    0.44630   0.18860   0.78460   Biso      1.000     C          0.356758  
         C49       1.0000    0.56870   0.22350   0.81180   Biso      1.000     C          -0.238492           
         C50       1.0000    0.68950   0.37670   0.78110   Biso      1.000     C          0.081184  
         C51       1.0000    0.60470   0.30070   0.60500   Biso      1.000     C          0.146514  
         C52       1.0000    0.17720   0.80260   0.29480   Biso      1.000     C          0.147732  
         C53       1.0000    0.18750   0.83640   0.21320   Biso      1.000     C          -0.182361           
         C54       1.0000    0.11810   0.75990   0.10230   Biso      1.000     C          -0.100747           
         C55       1.0000    0.04030   0.65140   0.07140   Biso      1.000     C          -0.105611           
         C56       1.0000    0.02930   0.61690   0.15140   Biso      1.000     C          -0.194663           
         C57       1.0000    0.09930   0.69430   0.26500   Biso      1.000     C          0.146752  
         C58       1.0000    0.18860   0.78460   0.44630   Biso      1.000     C          0.35675999999999997           
         C59       1.0000    0.90070   0.30570   0.73500   Biso      1.000     C          0.146753  
         C60       1.0000    0.97070   0.38310   0.84860   Biso      1.000     C          -0.194664           
         Cd1       1.0000    0.96475   0.47813   0.61612   Biso      1.000     Cd          0.810176  
         Cd2       1.0000    0.52187   0.38388   0.03525   Biso      1.000     Cd          0.8101729999999999  
         Cd3       1.0000    0.38388   0.03525   0.52187   Biso      1.000     Cd          0.8101729999999999  
         Cd4       1.0000    0.03525   0.52187   0.38388   Biso      1.000     Cd          0.810174  
         Cd5       1.0000    0.47813   0.61612   0.96475   Biso      1.000     Cd          0.8101729999999999  
         Cd6       1.0000    0.61612   0.96475   0.47813   Biso      1.000     Cd          0.810172  
         Cl1       1.0000    0.47462   0.03585   0.38151   Biso      1.000     Cl          -0.5068229999999999           
         Cl2       1.0000    0.38151   0.47462   0.03585   Biso      1.000     Cl          -0.506822           
         Cl3       1.0000    0.52538   0.96415   0.61849   Biso      1.000     Cl          -0.5068229999999999           
         Cl4       1.0000    0.61849   0.52538   0.96415   Biso      1.000     Cl          -0.5068229999999999           
         Cl5       1.0000    0.03585   0.38151   0.47462   Biso      1.000     Cl          -0.5068229999999999           
         Cl6       1.0000    0.96415   0.61849   0.52538   Biso      1.000     Cl          -0.5068229999999999           
         H1        1.0000    0.25960   0.57400   0.14360   Biso      1.000     H          0.11585   
         H2        1.0000    0.76680   0.76020   0.09130   Biso      1.000     H          0.12204300000000001           
         H3        1.0000    0.95400   0.87700   0.21900   Biso      1.000     H          0.108375  
         H4        1.0000    0.00490   0.00510   0.39880   Biso      1.000     H          0.104528  
         H5        1.0000    0.86920   0.02310   0.45560   Biso      1.000     H          0.116771  
         H6        1.0000    0.41780   0.84280   0.20350   Biso      1.000     H          0.135858  
         H7        1.0000    0.38500   0.72520   0.10820   Biso      1.000     H          0.132823  
         H8        1.0000    0.41420   0.71140   0.46930   Biso      1.000     H          0.099287  
         H9        1.0000    0.90870   0.23320   0.23980   Biso      1.000     H          0.12204300000000001           
         H10       1.0000    0.87700   0.21900   0.95400   Biso      1.000     H          0.108375  
         H11       1.0000    0.00510   0.39880   0.00490   Biso      1.000     H          0.104528  
         H12       1.0000    0.02310   0.45560   0.86920   Biso      1.000     H          0.116771  
         H13       1.0000    0.46930   0.41420   0.71140   Biso      1.000     H          0.099286  
         H14       1.0000    0.72520   0.10820   0.38500   Biso      1.000     H          0.132823  
         H15       1.0000    0.57400   0.14360   0.25960   Biso      1.000     H          0.11585   
         H16       1.0000    0.71140   0.46930   0.41420   Biso      1.000     H          0.099287  
         H17       1.0000    0.76020   0.09130   0.76680   Biso      1.000     H          0.12204300000000001           
         H18       1.0000    0.14360   0.25960   0.57400   Biso      1.000     H          0.11584900000000001           
         H19       1.0000    0.78100   0.04600   0.12300   Biso      1.000     H          0.108375  
         H20       1.0000    0.20350   0.41780   0.84280   Biso      1.000     H          0.135858  
         H21       1.0000    0.60120   0.99510   0.99490   Biso      1.000     H          0.104528  
         H22       1.0000    0.54440   0.13080   0.97690   Biso      1.000     H          0.116771  
         H23       1.0000    0.79650   0.58220   0.15720   Biso      1.000     H          0.135858  
         H24       1.0000    0.89180   0.61500   0.27480   Biso      1.000     H          0.132823  
         H25       1.0000    0.10820   0.38500   0.72520   Biso      1.000     H          0.132823  
         H26       1.0000    0.85640   0.74040   0.42600   Biso      1.000     H          0.11585   
         H27       1.0000    0.53070   0.58580   0.28860   Biso      1.000     H          0.099286  
         H28       1.0000    0.23320   0.23980   0.90870   Biso      1.000     H          0.12204300000000001           
         H29       1.0000    0.04600   0.12300   0.78100   Biso      1.000     H          0.108375  
         H30       1.0000    0.99510   0.99490   0.60120   Biso      1.000     H          0.104528  
         H31       1.0000    0.13080   0.97690   0.54440   Biso      1.000     H          0.116771  
         H32       1.0000    0.58220   0.15720   0.79650   Biso      1.000     H          0.135858  
         H33       1.0000    0.61500   0.27480   0.89180   Biso      1.000     H          0.132823  
         H34       1.0000    0.84280   0.20350   0.41780   Biso      1.000     H          0.135858  
         H35       1.0000    0.58580   0.28860   0.53070   Biso      1.000     H          0.099287  
         H36       1.0000    0.74040   0.42600   0.85640   Biso      1.000     H          0.11584900000000001           
         H37       1.0000    0.28860   0.53070   0.58580   Biso      1.000     H          0.099286  
         H38       1.0000    0.09130   0.76680   0.76020   Biso      1.000     H          0.12204300000000001           
         H39       1.0000    0.21900   0.95400   0.87700   Biso      1.000     H          0.108375  
         H40       1.0000    0.39880   0.00490   0.00510   Biso      1.000     H          0.104528  
         H41       1.0000    0.42600   0.85640   0.74040   Biso      1.000     H          0.11585   
         H42       1.0000    0.45560   0.86920   0.02310   Biso      1.000     H          0.116771  
         H43       1.0000    0.15720   0.79650   0.58220   Biso      1.000     H          0.135858  
         H44       1.0000    0.97690   0.54440   0.13080   Biso      1.000     H          0.116771  
         H45       1.0000    0.99490   0.60120   0.99510   Biso      1.000     H          0.104528  
         H46       1.0000    0.12300   0.78100   0.04600   Biso      1.000     H          0.108375  
         H47       1.0000    0.23980   0.90870   0.23320   Biso      1.000     H          0.12204300000000001           
         H48       1.0000    0.27480   0.89180   0.61500   Biso      1.000     H          0.132823  
         N1        1.0000    0.60270   0.27900   0.74600   Biso      1.000     N          0.197071  
         N2        1.0000    0.69360   0.39440   0.69330   Biso      1.000     N          -0.35131  
         N3        1.0000    0.54630   0.22720   0.63100   Biso      1.000     N          -0.270074           
         N4        1.0000    0.36280   0.10710   0.68320   Biso      1.000     N          -0.440726           
         N5        1.0000    0.86050   0.41320   0.23490   Biso      1.000     N          -0.43089700000000003          
         N6        1.0000    0.69330   0.69360   0.39440   Biso      1.000     N          -0.35131100000000004          
         N7        1.0000    0.63100   0.54630   0.22720   Biso      1.000     N          -0.270083           
         N8        1.0000    0.74600   0.60270   0.27900   Biso      1.000     N          0.197078  
         N9        1.0000    0.68320   0.36280   0.10710   Biso      1.000     N          -0.440726           
         N10       1.0000    0.23490   0.86050   0.41320   Biso      1.000     N          -0.430899           
         N11       1.0000    0.41320   0.23490   0.86050   Biso      1.000     N          -0.43089799999999995          
         N12       1.0000    0.10710   0.68320   0.36280   Biso      1.000     N          -0.44073900000000005          
         N13       1.0000    0.31680   0.63720   0.89290   Biso      1.000     N          -0.440726           
         N14       1.0000    0.22720   0.63100   0.54630   Biso      1.000     N          -0.270084           
         N15       1.0000    0.60560   0.30670   0.30640   Biso      1.000     N          -0.35131100000000004          
         N16       1.0000    0.77280   0.36900   0.45370   Biso      1.000     N          -0.270082           
         N17       1.0000    0.72100   0.25400   0.39730   Biso      1.000     N          0.197078  
         N18       1.0000    0.89290   0.31680   0.63720   Biso      1.000     N          -0.44073999999999997          
         N19       1.0000    0.76510   0.13950   0.58680   Biso      1.000     N          -0.430899           
         N20       1.0000    0.30640   0.60560   0.30670   Biso      1.000     N          -0.35131100000000004          
         N21       1.0000    0.27900   0.74600   0.60270   Biso      1.000     N          0.197079  
         N22       1.0000    0.39730   0.72100   0.25400   Biso      1.000     N          0.19707   
         N23       1.0000    0.58680   0.76510   0.13950   Biso      1.000     N          -0.43089799999999995          
         N24       1.0000    0.30670   0.30640   0.60560   Biso      1.000     N          -0.35131100000000004          
         N25       1.0000    0.36900   0.45370   0.77280   Biso      1.000     N          -0.270083           
         N26       1.0000    0.25400   0.39730   0.72100   Biso      1.000     N          0.197079  
         N27       1.0000    0.13950   0.58680   0.76510   Biso      1.000     N          -0.430899           
         N28       1.0000    0.39440   0.69330   0.69360   Biso      1.000     N          -0.35131  
         N29       1.0000    0.63720   0.89290   0.31680   Biso      1.000     N          -0.440726           
         N30       1.0000    0.45370   0.77280   0.36900   Biso      1.000     N          -0.270073 