
##########################################################################
#               Crystallographic Information Format file
#               Produced by PyCifRW module
#
#  This is a CIF file.  CIF has been adopted by the International
#  Union of Crystallography as the standard for data archiving and
#  transmission.
#
#  For information on this file format, follow the CIF links at
#  http://www.iucr.org
##########################################################################

data_image0

_cell_length_a                          7.474
_cell_length_b                          11.6823
_cell_length_c                          28.155
_cell_angle_alpha                       88.017
_cell_angle_beta                        83.79
_cell_angle_gamma                       71.344
_symmetry_space_group_name_H-M          'P 1'
_symmetry_int_tables_number             1
loop_
  _symmetry_equiv_pos_as_xyz
         'x, y, z' 
loop_
  _atom_site_label
  _atom_site_occupancy
  _atom_site_fract_x
  _atom_site_fract_y
  _atom_site_fract_z
  _atom_site_thermal_displace_type
  _atom_site_B_iso_or_equiv
  _atom_site_type_symbol
  _atom_site_charge
         C1        1.0000    0.47160   0.99140   0.38090   Biso      1.000     C          0.032099  
         C2        1.0000    0.86940   0.52900   0.43970   Biso      1.000     C          0.12875699999999998           
         C3        1.0000    0.74960   0.62100   0.47670   Biso      1.000     C          -0.193924           
         C4        1.0000    0.54360   0.36000   0.56440   Biso      1.000     C          -0.121099           
         C5        1.0000    0.71810   0.27240   0.56580   Biso      1.000     C          -0.061187           
         C6        1.0000    0.70750   0.18300   0.53740   Biso      1.000     C          -0.034661000000000004         
         C7        1.0000    0.93430   0.56400   0.39580   Biso      1.000     C          -0.13614300000000001          
         C8        1.0000    0.03630   0.47480   0.36120   Biso      1.000     C          0.119778  
         C9        1.0000    0.90480   0.40200   0.44990   Biso      1.000     C          -0.37589  
         C10       1.0000    0.06710   0.35560   0.37230   Biso      1.000     C          -0.191197           
         C11       1.0000    0.43740   0.46980   0.32490   Biso      1.000     C          -0.055784           
         C12       1.0000    0.56990   0.52720   0.31650   Biso      1.000     C          -0.216142           
         C13       1.0000    0.47570   0.63380   0.29590   Biso      1.000     C          -0.004525           
         C14       1.0000    0.46300   0.00860   0.88090   Biso      1.000     C          0.032351  
         C15       1.0000    0.33430   0.02780   0.84680   Biso      1.000     C          -0.226138           
         C16       1.0000    0.22450   0.95900   0.85970   Biso      1.000     C          -0.052171           
         C17       1.0000    0.21420   0.81340   0.92750   Biso      1.000     C          -0.207197           
         C18       1.0000    0.09900   0.51300   0.31250   Biso      1.000     C          -0.197318           
         C19       1.0000    0.00130   0.31760   0.41600   Biso      1.000     C          0.215563  
         C20       1.0000    0.02760   0.18660   0.42750   Biso      1.000     C          -0.20709699999999998          
         C21       1.0000    0.18350   0.04100   0.35970   Biso      1.000     C          -0.05185599999999999          
         C22       1.0000    0.10950   0.18300   0.96260   Biso      1.000     C          -0.035179           
         C23       1.0000    0.00950   0.27240   0.93420   Biso      1.000     C          -0.06002999999999999          
         C24       1.0000    0.09640   0.36000   0.93560   Biso      1.000     C          -0.12147999999999999          
         C25       1.0000    0.62940   0.62100   0.02330   Biso      1.000     C          -0.196055           
         C26       1.0000    0.60160   0.52900   0.06030   Biso      1.000     C          0.130261  
         C27       1.0000    0.69320   0.40200   0.05010   Biso      1.000     C          -0.376301           
         C28       1.0000    0.68110   0.31760   0.08400   Biso      1.000     C          0.216705  
         C29       1.0000    0.78580   0.18660   0.07250   Biso      1.000     C          -0.207447           
         C30       1.0000    0.77550   0.04100   0.14030   Biso      1.000     C          -0.051863           
         C31       1.0000    0.66570   0.97220   0.15320   Biso      1.000     C          -0.22640300000000002          
         C32       1.0000    0.53700   0.99140   0.11910   Biso      1.000     C          0.032154  
         C33       1.0000    0.57730   0.35560   0.12770   Biso      1.000     C          -0.191158           
         C34       1.0000    0.38800   0.51300   0.18750   Biso      1.000     C          -0.197608           
         C35       1.0000    0.09280   0.46980   0.17510   Biso      1.000     C          -0.05586699999999999          
         C36       1.0000    0.90290   0.52720   0.18350   Biso      1.000     C          -0.215087           
         C37       1.0000    0.89050   0.63380   0.20410   Biso      1.000     C          -0.005327           
         C38       1.0000    0.36210   0.97220   0.34680   Biso      1.000     C          -0.225215           
         C39       1.0000    0.31890   0.68240   0.91600   Biso      1.000     C          0.21663200000000002           
         C40       1.0000    0.50170   0.56400   0.10420   Biso      1.000     C          -0.13667  
         C41       1.0000    0.30680   0.59800   0.94990   Biso      1.000     C          -0.376215           
         C42       1.0000    0.37060   0.37900   0.97670   Biso      1.000     C          -0.196077           
         C43       1.0000    0.52430   0.36620   0.70410   Biso      1.000     C          -0.004675           
         C44       1.0000    0.43010   0.47280   0.68350   Biso      1.000     C          -0.21654099999999998          
         C45       1.0000    0.56260   0.53020   0.67510   Biso      1.000     C          -0.055321           
         C46       1.0000    0.90100   0.48700   0.68750   Biso      1.000     C          -0.19703800000000002          
         C47       1.0000    0.93290   0.64440   0.62770   Biso      1.000     C          -0.191369           
         C48       1.0000    0.96370   0.52520   0.63880   Biso      1.000     C          0.11922999999999999           
         C49       1.0000    0.06570   0.43600   0.60420   Biso      1.000     C          -0.135762           
         C50       1.0000    0.29250   0.81700   0.46260   Biso      1.000     C          -0.034885           
         C51       1.0000    0.39840   0.47100   0.93970   Biso      1.000     C          0.130222  
         C52       1.0000    0.45640   0.64000   0.43560   Biso      1.000     C          -0.121109           
         C53       1.0000    0.25040   0.37900   0.52330   Biso      1.000     C          -0.193896           
         C54       1.0000    0.13060   0.47100   0.56030   Biso      1.000     C          0.128778  
         C55       1.0000    0.09520   0.59800   0.55010   Biso      1.000     C          -0.375996           
         C56       1.0000    0.99870   0.68240   0.58400   Biso      1.000     C          0.21558899999999998           
         C57       1.0000    0.28190   0.72760   0.43420   Biso      1.000     C          -0.061147           
         C58       1.0000    0.81650   0.95900   0.64030   Biso      1.000     C          -0.05226  
         C59       1.0000    0.90360   0.64000   0.06440   Biso      1.000     C          -0.121163           
         C60       1.0000    0.97240   0.81340   0.57250   Biso      1.000     C          -0.20704  
         C61       1.0000    0.89050   0.81700   0.03740   Biso      1.000     C          -0.035349           
         C62       1.0000    0.49830   0.43600   0.89580   Biso      1.000     C          -0.136711           
         C63       1.0000    0.51110   0.52520   0.86120   Biso      1.000     C          0.11993499999999999           
         C64       1.0000    0.42270   0.64440   0.87230   Biso      1.000     C          -0.191392           
         C65       1.0000    0.99050   0.72760   0.06580   Biso      1.000     C          -0.060721000000000004         
         C66       1.0000    0.61200   0.48700   0.81250   Biso      1.000     C          -0.197097           
         C67       1.0000    0.63790   0.02780   0.65320   Biso      1.000     C          -0.225096           
         C68       1.0000    0.52840   0.00860   0.61910   Biso      1.000     C          0.032039  
         C69       1.0000    0.48890   0.47480   0.13880   Biso      1.000     C          0.120148  
         C70       1.0000    0.09710   0.47280   0.81650   Biso      1.000     C          -0.215623           
         C71       1.0000    0.90720   0.53020   0.82490   Biso      1.000     C          -0.05558099999999999          
         C72       1.0000    0.10950   0.36620   0.79590   Biso      1.000     C          -0.005267           
         Cl1       1.0000    0.30153   0.85554   0.20950   Biso      1.000     Cl          -0.48305699999999996          
         Cl2       1.0000    0.19758   0.26624   0.08367   Biso      1.000     Cl          -0.513021           
         Cl3       1.0000    0.46382   0.73376   0.58367   Biso      1.000     Cl          -0.512857           
         Cl4       1.0000    0.84293   0.85554   0.29050   Biso      1.000     Cl          -0.483283           
         Cl5       1.0000    0.53618   0.26624   0.41633   Biso      1.000     Cl          -0.5126069999999999           
         Cl6       1.0000    0.25917   0.06366   0.52706   Biso      1.000     Cl          -0.49019799999999997          
         Cl7       1.0000    0.69847   0.14446   0.79050   Biso      1.000     Cl          -0.483361           
         Cl8       1.0000    0.80242   0.73376   0.91633   Biso      1.000     Cl          -0.51286  
         Cl9       1.0000    0.32283   0.93634   0.02706   Biso      1.000     Cl          -0.490358           
         Cl10      1.0000    0.15707   0.14446   0.70950   Biso      1.000     Cl          -0.483513           
         Cl11      1.0000    0.67717   0.06366   0.97294   Biso      1.000     Cl          -0.490591           
         Cl12      1.0000    0.74083   0.93634   0.47294   Biso      1.000     Cl          -0.490037           
         Co1       1.0000    0.11902   0.76196   0.25000   Biso      1.000     Co          0.620961  
         Co2       1.0000    0.88098   0.23804   0.75000   Biso      1.000     Co          0.62155   
         Cu1       1.0000    0.41121   0.13316   0.03193   Biso      1.000     Cu          0.667046  
         Cu2       1.0000    0.45563   0.13316   0.46807   Biso      1.000     Cu          0.667429  
         Cu3       1.0000    0.58879   0.86684   0.96807   Biso      1.000     Cu          0.667374  
         Cu4       1.0000    0.54437   0.86684   0.53193   Biso      1.000     Cu          0.6677810000000001  
         H1        1.0000    0.76690   0.68800   0.20900   Biso      1.000     H          0.119497  
         H2        1.0000    0.45490   0.31200   0.70900   Biso      1.000     H          0.119317  
         H3        1.0000    0.40400   0.92800   0.32000   Biso      1.000     H          0.146596  
         H4        1.0000    0.06300   0.04200   0.34600   Biso      1.000     H          0.13283   
         H5        1.0000    0.04200   0.17200   0.46200   Biso      1.000     H          0.123977  
         H6        1.0000    0.81500   0.68400   0.48000   Biso      1.000     H          0.12145299999999999           
         H7        1.0000    0.77100   0.44600   0.44700   Biso      1.000     H          0.200507  
         H8        1.0000    0.79700   0.49200   0.17600   Biso      1.000     H          0.132278  
         H9        1.0000    0.74900   0.58600   0.50900   Biso      1.000     H          0.11813599999999999           
         H10       1.0000    0.50000   0.44200   0.57900   Biso      1.000     H          0.122581  
         H11       1.0000    0.81700   0.10600   0.53000   Biso      1.000     H          0.11916099999999999           
         H12       1.0000    0.90800   0.17000   0.42300   Biso      1.000     H          0.136271  
         H13       1.0000    0.15700   0.38400   0.16000   Biso      1.000     H          0.12826700000000002           
         H14       1.0000    0.56700   0.29200   0.15200   Biso      1.000     H          0.114344  
         H15       1.0000    0.43500   0.44800   0.21000   Biso      1.000     H          0.119094  
         H16       1.0000    0.14100   0.29200   0.34800   Biso      1.000     H          0.11495599999999999           
         H17       1.0000    0.07700   0.10600   0.97000   Biso      1.000     H          0.11906300000000002           
         H18       1.0000    0.05800   0.44200   0.92100   Biso      1.000     H          0.12272999999999999           
         H19       1.0000    0.66500   0.58600   0.99100   Biso      1.000     H          0.118578  
         H20       1.0000    0.50100   0.68400   0.02000   Biso      1.000     H          0.12150599999999999           
         H21       1.0000    0.78300   0.44600   0.05300   Biso      1.000     H          0.200059  
         H22       1.0000    0.92200   0.17000   0.07700   Biso      1.000     H          0.136505  
         H23       1.0000    0.78600   0.17200   0.03800   Biso      1.000     H          0.12430999999999999           
         H24       1.0000    0.89500   0.04200   0.15400   Biso      1.000     H          0.133237  
         H25       1.0000    0.66800   0.92800   0.18000   Biso      1.000     H          0.147092  
         H26       1.0000    0.44100   0.95000   0.11900   Biso      1.000     H          0.11498599999999999           
         H27       1.0000    0.41700   0.58200   0.19800   Biso      1.000     H          0.125769  
         H28       1.0000    0.11700   0.44800   0.29000   Biso      1.000     H          0.118877  
         H29       1.0000    0.28900   0.50800   0.67600   Biso      1.000     H          0.13331500000000002           
         H30       1.0000    0.45900   0.38400   0.34000   Biso      1.000     H          0.128173  
         H31       1.0000    0.59600   0.07200   0.68000   Biso      1.000     H          0.146485  
         H32       1.0000    0.93700   0.95800   0.65400   Biso      1.000     H          0.132957  
         H33       1.0000    0.95800   0.82800   0.53800   Biso      1.000     H          0.123905  
         H34       1.0000    0.00100   0.58200   0.30200   Biso      1.000     H          0.125187  
         H35       1.0000    0.09200   0.83000   0.57700   Biso      1.000     H          0.13627   
         H36       1.0000    0.22900   0.55400   0.55300   Biso      1.000     H          0.200459  
         H37       1.0000    0.39100   0.05000   0.61900   Biso      1.000     H          0.11573499999999999           
         H38       1.0000    0.18500   0.31600   0.52000   Biso      1.000     H          0.121495  
         H39       1.0000    0.50000   0.55800   0.42100   Biso      1.000     H          0.12239000000000001           
         H40       1.0000    0.18300   0.89400   0.47000   Biso      1.000     H          0.11914000000000001           
         H41       1.0000    0.85900   0.70800   0.65200   Biso      1.000     H          0.115106  
         H42       1.0000    0.88300   0.55200   0.71000   Biso      1.000     H          0.118978  
         H43       1.0000    0.99900   0.41800   0.69800   Biso      1.000     H          0.12536   
         H44       1.0000    0.54100   0.61600   0.66000   Biso      1.000     H          0.128229  
         H45       1.0000    0.25100   0.41400   0.49100   Biso      1.000     H          0.11806300000000002           
         H46       1.0000    0.23310   0.31200   0.79100   Biso      1.000     H          0.11955999999999999           
         H47       1.0000    0.60900   0.95000   0.38100   Biso      1.000     H          0.115695  
         H48       1.0000    0.84300   0.61600   0.84000   Biso      1.000     H          0.12830899999999998           
         H49       1.0000    0.20300   0.50800   0.82400   Biso      1.000     H          0.132651  
         H50       1.0000    0.33500   0.41400   0.00900   Biso      1.000     H          0.118591  
         H51       1.0000    0.49900   0.31600   0.98000   Biso      1.000     H          0.121452  
         H52       1.0000    0.21700   0.55400   0.94700   Biso      1.000     H          0.199918  
         H53       1.0000    0.07800   0.83000   0.92300   Biso      1.000     H          0.13646   
         H54       1.0000    0.21400   0.82800   0.96200   Biso      1.000     H          0.12428800000000001           
         H55       1.0000    0.10500   0.95800   0.84600   Biso      1.000     H          0.133301  
         H56       1.0000    0.94200   0.55800   0.07900   Biso      1.000     H          0.122455  
         H57       1.0000    0.55900   0.05000   0.88100   Biso      1.000     H          0.114977  
         H58       1.0000    0.54510   0.68800   0.29100   Biso      1.000     H          0.119254  
         H59       1.0000    0.71100   0.49200   0.32400   Biso      1.000     H          0.13298800000000002           
         H60       1.0000    0.92300   0.89400   0.03000   Biso      1.000     H          0.119223  
         H61       1.0000    0.43300   0.70800   0.84800   Biso      1.000     H          0.11456400000000001           
         H62       1.0000    0.56500   0.55200   0.79000   Biso      1.000     H          0.11898900000000001           
         H63       1.0000    0.58300   0.41800   0.80200   Biso      1.000     H          0.12569   
         H64       1.0000    0.33200   0.07200   0.82000   Biso      1.000     H          0.146629  
         N1        1.0000    0.81430   0.90320   0.59960   Biso      1.000     N          0.194428  
         N2        1.0000    0.70630   0.35340   0.70890   Biso      1.000     N          -0.223739           
         N3        1.0000    0.72180   0.45820   0.68840   Biso      1.000     N          0.21445999999999998           
         N4        1.0000    0.45750   0.79100   0.48020   Biso      1.000     N          -0.181302           
         N5        1.0000    0.55710   0.67880   0.46320   Biso      1.000     N          0.221108  
         N6        1.0000    0.63530   0.93260   0.58570   Biso      1.000     N          -0.2181   
         N7        1.0000    0.75150   0.79100   0.01980   Biso      1.000     N          -0.181826           
         N8        1.0000    0.82000   0.45820   0.81160   Biso      1.000     N          0.214829  
         N9        1.0000    0.56790   0.06740   0.08570   Biso      1.000     N          -0.21612399999999998          
         N10       1.0000    0.71750   0.09680   0.09960   Biso      1.000     N          0.193605  
         N11       1.0000    0.23590   0.32120   0.96320   Biso      1.000     N          0.22242199999999998           
         N12       1.0000    0.24850   0.20900   0.98020   Biso      1.000     N          -0.181747           
         N13       1.0000    0.18000   0.54180   0.18840   Biso      1.000     N          0.21528000000000003           
         N14       1.0000    0.05970   0.64660   0.20890   Biso      1.000     N          -0.223539           
         N15       1.0000    0.94030   0.35340   0.79110   Biso      1.000     N          -0.223625           
         N16       1.0000    0.18570   0.09680   0.40040   Biso      1.000     N          0.194328  
         N17       1.0000    0.54250   0.20900   0.51980   Biso      1.000     N          -0.181567           
         N18       1.0000    0.27820   0.54180   0.31160   Biso      1.000     N          0.21486599999999997           
         N19       1.0000    0.29370   0.64660   0.29110   Biso      1.000     N          -0.223566           
         N20       1.0000    0.43210   0.93260   0.91430   Biso      1.000     N          -0.21664899999999998          
         N21       1.0000    0.28250   0.90320   0.90040   Biso      1.000     N          0.193603  
         N22       1.0000    0.76410   0.67880   0.03680   Biso      1.000     N          0.222264  
         N23       1.0000    0.44290   0.32120   0.53680   Biso      1.000     N          0.221045  
         N24       1.0000    0.36470   0.06740   0.41430   Biso      1.000     N          -0.217957 