
##########################################################################
#               Crystallographic Information Format file
#               Produced by PyCifRW module
#
#  This is a CIF file.  CIF has been adopted by the International
#  Union of Crystallography as the standard for data archiving and
#  transmission.
#
#  For information on this file format, follow the CIF links at
#  http://www.iucr.org
##########################################################################

data_image0

_cell_length_a                          10.122
_cell_length_b                          10.806
_cell_length_c                          13.723
_cell_angle_alpha                       79.153
_cell_angle_beta                        78.796
_cell_angle_gamma                       86.392
_symmetry_space_group_name_H-M          'P 1'
_symmetry_int_tables_number             1
loop_
  _symmetry_equiv_pos_as_xyz
         'x, y, z' 
loop_
  _atom_site_label
  _atom_site_occupancy
  _atom_site_fract_x
  _atom_site_fract_y
  _atom_site_fract_z
  _atom_site_thermal_displace_type
  _atom_site_B_iso_or_equiv
  _atom_site_type_symbol
  _atom_site_charge
         C1        1.0000    0.01700   0.74260   0.71890   Biso      1.000     C          -0.155642           
         C2        1.0000    0.68410   0.67510   0.77370   Biso      1.000     C          0.001993  
         C3        1.0000    0.66520   0.62080   0.87430   Biso      1.000     C          -0.21990300000000002          
         C4        1.0000    0.66360   0.49040   0.90250   Biso      1.000     C          0.281988  
         C5        1.0000    0.67830   0.41740   0.82860   Biso      1.000     C          -0.203052           
         C6        1.0000    0.70160   0.47230   0.72680   Biso      1.000     C          -0.027706           
         C7        1.0000    0.01060   0.53440   0.81080   Biso      1.000     C          -0.12343299999999999          
         C8        1.0000    0.01500   0.49340   0.72140   Biso      1.000     C          0.085436  
         C9        1.0000    0.02460   0.69360   0.63270   Biso      1.000     C          0.094065  
         C10       1.0000    0.00950   0.66170   0.80970   Biso      1.000     C          0.043312  
         C11       1.0000    0.00590   0.70500   0.90780   Biso      1.000     C          0.490462  
         C12       1.0000    0.09110   0.89060   0.21760   Biso      1.000     C          0.5742    
         C13       1.0000    0.59290   0.90190   0.21500   Biso      1.000     C          0.58725   
         C14       1.0000    0.76540   0.85810   0.07020   Biso      1.000     C          -0.159986           
         C15       1.0000    0.00080   0.85040   0.07270   Biso      1.000     C          -0.193338           
         C16       1.0000    0.97410   0.88000   0.16830   Biso      1.000     C          -0.017514           
         C17       1.0000    0.84140   0.89610   0.21640   Biso      1.000     C          -0.141876           
         C18       1.0000    0.73750   0.88580   0.16810   Biso      1.000     C          0.00043200000000000004        
         C19       1.0000    0.35540   0.54180   0.73410   Biso      1.000     C          -0.16235  
         C20       1.0000    0.36060   0.61300   0.63940   Biso      1.000     C          0.076576  
         C21       1.0000    0.70380   0.60190   0.69960   Biso      1.000     C          -0.153602           
         C22       1.0000    0.35380   0.79370   0.70090   Biso      1.000     C          0.08646000000000001           
         C23       1.0000    0.68730   0.81510   0.74720   Biso      1.000     C          0.5863109999999999  
         C24       1.0000    0.66610   0.48220   0.08190   Biso      1.000     C          0.496791  
         C25       1.0000    0.98940   0.46560   0.18920   Biso      1.000     C          -0.12343299999999999          
         C26       1.0000    0.98500   0.50660   0.27860   Biso      1.000     C          0.085435  
         C27       1.0000    0.97540   0.30640   0.36730   Biso      1.000     C          0.094062  
         C28       1.0000    0.98300   0.25740   0.28110   Biso      1.000     C          -0.155637           
         C29       1.0000    0.99050   0.33830   0.19030   Biso      1.000     C          0.043312  
         C30       1.0000    0.99410   0.29500   0.09220   Biso      1.000     C          0.490462  
         C31       1.0000    0.90890   0.10940   0.78240   Biso      1.000     C          0.574198  
         C32       1.0000    0.40710   0.09810   0.78500   Biso      1.000     C          0.5872470000000001  
         C33       1.0000    0.23460   0.14190   0.92980   Biso      1.000     C          -0.159991           
         C34       1.0000    0.10420   0.16220   0.97580   Biso      1.000     C          0.263544  
         C35       1.0000    0.99920   0.14960   0.92730   Biso      1.000     C          -0.19333399999999998          
         C36       1.0000    0.02590   0.12000   0.83170   Biso      1.000     C          -0.017511000000000002         
         C37       1.0000    0.15860   0.10390   0.78360   Biso      1.000     C          -0.14188  
         C38       1.0000    0.26250   0.11420   0.83190   Biso      1.000     C          0.00043200000000000004        
         C39       1.0000    0.64460   0.45820   0.26590   Biso      1.000     C          -0.162353           
         C40       1.0000    0.63940   0.38700   0.36060   Biso      1.000     C          0.076567  
         C41       1.0000    0.64620   0.20630   0.29910   Biso      1.000     C          0.086452  
         C42       1.0000    0.65140   0.26990   0.20180   Biso      1.000     C          -0.183687           
         C43       1.0000    0.65210   0.40030   0.18390   Biso      1.000     C          0.005228  
         C44       1.0000    0.73260   0.39410   0.64630   Biso      1.000     C          0.665459  
         C45       1.0000    0.34860   0.73010   0.79820   Biso      1.000     C          -0.18368299999999999          
         C46       1.0000    0.89580   0.83780   0.02420   Biso      1.000     C          0.26354299999999997           
         C47       1.0000    0.33390   0.51780   0.91810   Biso      1.000     C          0.49679700000000004           
         C48       1.0000    0.34790   0.59970   0.81610   Biso      1.000     C          0.005231  
         C49       1.0000    0.29840   0.52770   0.27320   Biso      1.000     C          -0.027701999999999997         
         C50       1.0000    0.33640   0.50960   0.09750   Biso      1.000     C          0.281987  
         C51       1.0000    0.33480   0.37920   0.12570   Biso      1.000     C          -0.21990300000000002          
         C52       1.0000    0.32170   0.58260   0.17140   Biso      1.000     C          -0.203045           
         C53       1.0000    0.29620   0.39810   0.30040   Biso      1.000     C          -0.153596           
         C54       1.0000    0.31270   0.18490   0.25280   Biso      1.000     C          0.5863119999999999  
         C55       1.0000    0.26740   0.60590   0.35370   Biso      1.000     C          0.665461  
         C56       1.0000    0.31590   0.32490   0.22630   Biso      1.000     C          0.002001  
         Co1       1.0000    0.00000   0.50000   0.50000   Biso      1.000     Co          0.7329180000000001  
         H1        1.0000    0.08940   0.83880   0.04080   Biso      1.000     H          0.13706   
         H2        1.0000    0.00840   0.47720   0.87080   Biso      1.000     H          0.14244600000000002           
         H3        1.0000    0.03280   0.74920   0.57130   Biso      1.000     H          0.102184  
         H4        1.0000    0.01710   0.82930   0.71590   Biso      1.000     H          0.136236  
         H5        1.0000    0.69520   0.85340   0.03630   Biso      1.000     H          0.147811  
         H6        1.0000    0.82340   0.91380   0.28150   Biso      1.000     H          0.130689  
         H7        1.0000    0.28150   0.36040   0.36810   Biso      1.000     H          0.12726300000000001           
         H8        1.0000    0.36530   0.57170   0.58510   Biso      1.000     H          0.093825  
         H9        1.0000    0.35340   0.88130   0.68990   Biso      1.000     H          0.09032799999999999           
         H10       1.0000    0.34570   0.77380   0.85090   Biso      1.000     H          0.126095  
         H11       1.0000    0.37950   0.64590   0.98220   Biso      1.000     H          0.308767  
         H12       1.0000    0.34650   0.32870   0.07660   Biso      1.000     H          0.139473  
         H13       1.0000    0.32740   0.66970   0.15300   Biso      1.000     H          0.142354  
         H14       1.0000    0.35690   0.45430   0.74270   Biso      1.000     H          0.12876600000000002           
         H15       1.0000    0.88140   0.84280   0.88070   Biso      1.000     H          0.30641   
         H16       1.0000    0.01400   0.40710   0.72300   Biso      1.000     H          0.094459  
         H17       1.0000    0.65350   0.67130   0.92340   Biso      1.000     H          0.13947   
         H18       1.0000    0.67260   0.33030   0.84700   Biso      1.000     H          0.142352  
         H19       1.0000    0.11860   0.15720   0.11930   Biso      1.000     H          0.306409  
         H20       1.0000    0.62050   0.35410   0.01780   Biso      1.000     H          0.308759  
         H21       1.0000    0.98600   0.59290   0.27700   Biso      1.000     H          0.094458  
         H22       1.0000    0.96720   0.25080   0.42870   Biso      1.000     H          0.10218200000000001           
         H23       1.0000    0.98290   0.17070   0.28410   Biso      1.000     H          0.136234  
         H24       1.0000    0.30480   0.14660   0.96370   Biso      1.000     H          0.147814  
         H25       1.0000    0.99160   0.52280   0.12920   Biso      1.000     H          0.14244500000000002           
         H26       1.0000    0.17660   0.08620   0.71850   Biso      1.000     H          0.130691  
         H27       1.0000    0.64310   0.54570   0.25730   Biso      1.000     H          0.12875599999999998           
         H28       1.0000    0.63470   0.42830   0.41490   Biso      1.000     H          0.093816  
         H29       1.0000    0.64660   0.11870   0.31010   Biso      1.000     H          0.090322  
         H30       1.0000    0.65430   0.22620   0.14910   Biso      1.000     H          0.12608699999999998           
         H31       1.0000    0.71850   0.63960   0.63190   Biso      1.000     H          0.12726099999999999           
         H32       1.0000    0.91060   0.16120   0.95920   Biso      1.000     H          0.13706   
         N1        1.0000    0.97930   0.42960   0.36790   Biso      1.000     N          -0.21975300000000003          
         N2        1.0000    0.07890   0.19820   0.07260   Biso      1.000     N          -0.42005299999999995          
         N3        1.0000    0.64070   0.26160   0.37820   Biso      1.000     N          -0.27658  
         N4        1.0000    0.64630   0.43080   0.00400   Biso      1.000     N          -0.41760699999999995          
         N5        1.0000    0.02070   0.57040   0.63210   Biso      1.000     N          -0.219752           
         N6        1.0000    0.35370   0.56920   0.99600   Biso      1.000     N          -0.41759799999999997          
         N7        1.0000    0.35930   0.73840   0.62180   Biso      1.000     N          -0.276575           
         N8        1.0000    0.92110   0.80180   0.92740   Biso      1.000     N          -0.420049           
         O1        1.0000    0.67990   0.28740   0.66440   Biso      1.000     O          -0.678855           
         O2        1.0000    0.67070   0.87100   0.66120   Biso      1.000     O          -0.65815  
         O3        1.0000    0.80710   0.43560   0.56490   Biso      1.000     O          -0.539812           
         O4        1.0000    0.70610   0.87720   0.81050   Biso      1.000     O          -0.627842           
         O5        1.0000    0.07540   0.64870   0.96690   Biso      1.000     O          -0.47164300000000003          
         O6        1.0000    0.44100   0.09890   0.69070   Biso      1.000     O          -0.662642           
         O7        1.0000    0.92680   0.09480   0.69080   Biso      1.000     O          -0.68857  
         O8        1.0000    0.49630   0.08400   0.83750   Biso      1.000     O          -0.610527           
         O9        1.0000    0.69210   0.59170   0.07400   Biso      1.000     O          -0.460624           
         O10       1.0000    0.20820   0.88540   0.16740   Biso      1.000     O          -0.605644           
         O11       1.0000    0.92460   0.35130   0.03310   Biso      1.000     O          -0.47163599999999994          
         O12       1.0000    0.50370   0.91600   0.16250   Biso      1.000     O          -0.610529           
         O13       1.0000    0.55900   0.90110   0.30930   Biso      1.000     O          -0.662643           
         O14       1.0000    0.30790   0.40830   0.92600   Biso      1.000     O          -0.46059799999999995          
         O15       1.0000    0.29390   0.12280   0.18950   Biso      1.000     O          -0.627839           
         O16       1.0000    0.32930   0.12900   0.33880   Biso      1.000     O          -0.658148           
         O17       1.0000    0.32010   0.71260   0.33560   Biso      1.000     O          -0.678855           
         O18       1.0000    0.19290   0.56440   0.43510   Biso      1.000     O          -0.539813           
         O19       1.0000    0.79180   0.11460   0.83260   Biso      1.000     O          -0.605641           
         O20       1.0000    0.07320   0.90520   0.30920   Biso      1.000     O          -0.68857  
         Sm1       1.0000    0.68101   0.07748   0.70313   Biso      1.000     Sm          2.0202400000000003  
         Sm2       1.0000    0.31899   0.92252   0.29687   Biso      1.000     Sm          2.020261 