
##########################################################################
#               Crystallographic Information Format file
#               Produced by PyCifRW module
#
#  This is a CIF file.  CIF has been adopted by the International
#  Union of Crystallography as the standard for data archiving and
#  transmission.
#
#  For information on this file format, follow the CIF links at
#  http://www.iucr.org
##########################################################################

data_image0

_cell_length_a                          13.367
_cell_length_b                          13.852
_cell_length_c                          14.023
_cell_angle_alpha                       90
_cell_angle_beta                        91.61
_cell_angle_gamma                       90
_symmetry_space_group_name_H-M          'P 1'
_symmetry_int_tables_number             1
loop_
  _symmetry_equiv_pos_as_xyz
         'x, y, z' 
loop_
  _atom_site_label
  _atom_site_occupancy
  _atom_site_fract_x
  _atom_site_fract_y
  _atom_site_fract_z
  _atom_site_thermal_displace_type
  _atom_site_B_iso_or_equiv
  _atom_site_type_symbol
  _atom_site_charge
         Ba1       1.0000    0.03349   0.06976   0.23622   Biso      1.000     Ba          1.7197349999999998  
         Ba2       1.0000    0.96536   0.33780   0.04450   Biso      1.000     Ba          1.45541   
         Ba3       1.0000    0.46651   0.56976   0.26378   Biso      1.000     Ba          1.7197349999999998  
         Ba4       1.0000    0.53464   0.83780   0.45550   Biso      1.000     Ba          1.45541   
         Ba5       1.0000    0.96651   0.93024   0.76378   Biso      1.000     Ba          1.7197349999999998  
         Ba6       1.0000    0.03464   0.66220   0.95550   Biso      1.000     Ba          1.45541   
         Ba7       1.0000    0.53349   0.43024   0.73622   Biso      1.000     Ba          1.7197349999999998  
         Ba8       1.0000    0.46536   0.16220   0.54450   Biso      1.000     Ba          1.45541   
         C1        1.0000    0.27300   0.77300   0.49060   Biso      1.000     C          0.51415   
         C2        1.0000    0.31680   0.67600   0.45420   Biso      1.000     C          0.519383  
         C3        1.0000    0.04820   0.68000   0.70540   Biso      1.000     C          0.504689  
         C4        1.0000    0.15520   0.65000   0.73230   Biso      1.000     C          0.505021  
         C5        1.0000    0.20660   0.84800   0.89200   Biso      1.000     C          0.531496  
         C6        1.0000    0.26000   0.79100   0.97150   Biso      1.000     C          0.508376  
         C7        1.0000    0.96720   0.57550   0.18880   Biso      1.000     C          0.522524  
         C8        1.0000    0.96000   0.68300   0.19730   Biso      1.000     C          0.49889700000000003           
         C9        1.0000    0.29340   0.34800   0.60800   Biso      1.000     C          0.531496  
         C10       1.0000    0.45180   0.18000   0.79460   Biso      1.000     C          0.504689  
         C11       1.0000    0.34480   0.15000   0.76770   Biso      1.000     C          0.505022  
         C12       1.0000    0.46000   0.81700   0.69730   Biso      1.000     C          0.49889700000000003           
         C13       1.0000    0.24000   0.29100   0.52850   Biso      1.000     C          0.508376  
         C14       1.0000    0.53280   0.07550   0.31120   Biso      1.000     C          0.522524  
         C15       1.0000    0.54000   0.18300   0.30270   Biso      1.000     C          0.498896  
         C16       1.0000    0.72700   0.22700   0.50940   Biso      1.000     C          0.51415   
         C17       1.0000    0.68320   0.32400   0.54580   Biso      1.000     C          0.519383  
         C18       1.0000    0.77300   0.72700   0.99060   Biso      1.000     C          0.51415   
         C19       1.0000    0.46720   0.92450   0.68880   Biso      1.000     C          0.522524  
         C20       1.0000    0.81680   0.82400   0.95420   Biso      1.000     C          0.519383  
         C21       1.0000    0.70660   0.65200   0.39200   Biso      1.000     C          0.531496  
         C22       1.0000    0.76000   0.70900   0.47150   Biso      1.000     C          0.508376  
         C23       1.0000    0.95180   0.32000   0.29460   Biso      1.000     C          0.504688  
         C24       1.0000    0.79340   0.15200   0.10800   Biso      1.000     C          0.531496  
         C25       1.0000    0.74000   0.20900   0.02850   Biso      1.000     C          0.508376  
         C26       1.0000    0.03280   0.42450   0.81120   Biso      1.000     C          0.522524  
         C27       1.0000    0.84480   0.35000   0.26770   Biso      1.000     C          0.505021  
         C28       1.0000    0.22700   0.27300   0.00940   Biso      1.000     C          0.51415   
         C29       1.0000    0.18320   0.17600   0.04580   Biso      1.000     C          0.5193840000000001  
         C30       1.0000    0.54820   0.82000   0.20540   Biso      1.000     C          0.504688  
         C31       1.0000    0.65520   0.85000   0.23230   Biso      1.000     C          0.505021  
         C32       1.0000    0.04000   0.31700   0.80270   Biso      1.000     C          0.49889700000000003           
         O1        1.0000    0.35680   0.79570   0.97010   Biso      1.000     O          -0.580043           
         O2        1.0000    0.98430   0.73740   0.13010   Biso      1.000     O          -0.570933           
         O3        1.0000    0.94890   0.53020   0.26670   Biso      1.000     O          -0.58192  
         O4        1.0000    0.98730   0.53360   0.11330   Biso      1.000     O          -0.563756           
         O5        1.0000    0.26700   0.89070   0.83720   Biso      1.000     O          -0.597697           
         O6        1.0000    0.21220   0.74240   0.02870   Biso      1.000     O          -0.5426989999999999           
         O7        1.0000    0.11460   0.84790   0.88590   Biso      1.000     O          -0.638783           
         O8        1.0000    0.54340   0.86090   0.92620   Biso      1.000     O          -1.001616           
         O9        1.0000    0.18470   0.64930   0.81630   Biso      1.000     O          -0.536471           
         O10       1.0000    0.02550   0.67450   0.61580   Biso      1.000     O          -0.5843729999999999           
         O11       1.0000    0.20580   0.62700   0.66010   Biso      1.000     O          -0.603923           
         O12       1.0000    0.10610   0.49560   0.54820   Biso      1.000     O          -0.993614           
         O13       1.0000    0.93150   0.71420   0.27690   Biso      1.000     O          -0.593072           
         O14       1.0000    0.40090   0.67260   0.42210   Biso      1.000     O          -0.598591           
         O15       1.0000    0.25850   0.60250   0.46570   Biso      1.000     O          -0.615401           
         O16       1.0000    0.32420   0.84600   0.48350   Biso      1.000     O          -0.550791           
         O17       1.0000    0.99010   0.71130   0.76450   Biso      1.000     O          -0.610153           
         O18       1.0000    0.68540   0.73430   0.02010   Biso      1.000     O          -0.623067           
         O19       1.0000    0.29420   0.12700   0.83990   Biso      1.000     O          -0.603923           
         O20       1.0000    0.75850   0.89750   0.96570   Biso      1.000     O          -0.6154   
         O21       1.0000    0.18540   0.76570   0.52010   Biso      1.000     O          -0.6230680000000001           
         O22       1.0000    0.28780   0.24240   0.47130   Biso      1.000     O          -0.5426989999999999           
         O23       1.0000    0.23300   0.39070   0.66280   Biso      1.000     O          -0.597697           
         O24       1.0000    0.51270   0.03360   0.38670   Biso      1.000     O          -0.563756           
         O25       1.0000    0.55110   0.03020   0.23330   Biso      1.000     O          -0.581921           
         O26       1.0000    0.51570   0.23740   0.36990   Biso      1.000     O          -0.570933           
         O27       1.0000    0.56850   0.21420   0.22310   Biso      1.000     O          -0.593072           
         O28       1.0000    0.81460   0.23430   0.47990   Biso      1.000     O          -0.623067           
         O29       1.0000    0.67580   0.15400   0.51650   Biso      1.000     O          -0.550791           
         O30       1.0000    0.14320   0.29570   0.52990   Biso      1.000     O          -0.580043           
         O31       1.0000    0.38540   0.34790   0.61410   Biso      1.000     O          -0.638783           
         O32       1.0000    0.50990   0.21130   0.73550   Biso      1.000     O          -0.610153           
         O33       1.0000    0.31530   0.14930   0.68370   Biso      1.000     O          -0.536471           
         O34       1.0000    0.47450   0.17450   0.88420   Biso      1.000     O          -0.5843729999999999           
         O35       1.0000    0.39390   0.99560   0.95180   Biso      1.000     O          -0.993613           
         O36       1.0000    0.95660   0.36090   0.57380   Biso      1.000     O          -1.001617           
         O37       1.0000    0.90090   0.82740   0.92210   Biso      1.000     O          -0.598591           
         O38       1.0000    0.82420   0.65400   0.98350   Biso      1.000     O          -0.550791           
         O39       1.0000    0.43150   0.78580   0.77690   Biso      1.000     O          -0.593072           
         O40       1.0000    0.05110   0.46980   0.73330   Biso      1.000     O          -0.581921           
         O41       1.0000    0.44890   0.96980   0.76670   Biso      1.000     O          -0.581921           
         O42       1.0000    0.45660   0.13910   0.07380   Biso      1.000     O          -1.001616           
         O43       1.0000    0.89390   0.50440   0.45180   Biso      1.000     O          -0.993612           
         O44       1.0000    0.79420   0.37300   0.33990   Biso      1.000     O          -0.6039220000000001           
         O45       1.0000    0.97450   0.32550   0.38420   Biso      1.000     O          -0.584372           
         O46       1.0000    0.81530   0.35070   0.18370   Biso      1.000     O          -0.536471           
         O47       1.0000    0.00990   0.28870   0.23550   Biso      1.000     O          -0.610153           
         O48       1.0000    0.88540   0.15210   0.11410   Biso      1.000     O          -0.638783           
         O49       1.0000    0.64320   0.20430   0.02990   Biso      1.000     O          -0.580043           
         O50       1.0000    0.78780   0.25760   0.97130   Biso      1.000     O          -0.5426989999999999           
         O51       1.0000    0.73300   0.10930   0.16280   Biso      1.000     O          -0.597696           
         O52       1.0000    0.48430   0.76260   0.63010   Biso      1.000     O          -0.570933           
         O53       1.0000    0.74150   0.39750   0.53430   Biso      1.000     O          -0.6154   
         O54       1.0000    0.01570   0.26260   0.86990   Biso      1.000     O          -0.570933           
         O55       1.0000    0.06850   0.28580   0.72310   Biso      1.000     O          -0.593072           
         O56       1.0000    0.01270   0.46640   0.88670   Biso      1.000     O          -0.563756           
         O57       1.0000    0.17580   0.34600   0.01650   Biso      1.000     O          -0.550791           
         O58       1.0000    0.48730   0.96640   0.61330   Biso      1.000     O          -0.563756           
         O59       1.0000    0.76700   0.60930   0.33720   Biso      1.000     O          -0.597696           
         O60       1.0000    0.31460   0.26570   0.97990   Biso      1.000     O          -0.6230680000000001           
         O61       1.0000    0.85680   0.70430   0.47010   Biso      1.000     O          -0.5800420000000001           
         O62       1.0000    0.61460   0.65210   0.38590   Biso      1.000     O          -0.638783           
         O63       1.0000    0.49010   0.78870   0.26450   Biso      1.000     O          -0.610153           
         O64       1.0000    0.71220   0.75760   0.52870   Biso      1.000     O          -0.5426989999999999           
         O65       1.0000    0.52550   0.82550   0.11580   Biso      1.000     O          -0.584372           
         O66       1.0000    0.70580   0.87300   0.16010   Biso      1.000     O          -0.6039220000000001           
         O67       1.0000    0.60610   0.00440   0.04820   Biso      1.000     O          -0.993612           
         O68       1.0000    0.04340   0.63910   0.42620   Biso      1.000     O          -1.001616           
         O69       1.0000    0.09910   0.17260   0.07790   Biso      1.000     O          -0.598591           
         O70       1.0000    0.24150   0.10250   0.03430   Biso      1.000     O          -0.615401           
         O71       1.0000    0.68470   0.85070   0.31630   Biso      1.000     O          -0.536471           
         O72       1.0000    0.59910   0.32740   0.57790   Biso      1.000     O          -0.598591           
         Ti1       1.0000    0.08200   0.38890   0.61710   Biso      1.000     Ti          2.051816  
         Ti2       1.0000    0.37270   0.12280   0.97230   Biso      1.000     Ti          2.0554069999999998  
         Ti3       1.0000    0.41800   0.88890   0.88290   Biso      1.000     Ti          2.051816  
         Ti4       1.0000    0.12730   0.62280   0.52770   Biso      1.000     Ti          2.055409  
         Ti5       1.0000    0.91800   0.61110   0.38290   Biso      1.000     Ti          2.0518110000000003  
         Ti6       1.0000    0.62730   0.87720   0.02770   Biso      1.000     Ti          2.055402  
         Ti7       1.0000    0.58200   0.11110   0.11710   Biso      1.000     Ti          2.051813  
         Ti8       1.0000    0.87270   0.37720   0.47230   Biso      1.000     Ti          2.055406 