
##########################################################################
#               Crystallographic Information Format file
#               Produced by PyCifRW module
#
#  This is a CIF file.  CIF has been adopted by the International
#  Union of Crystallography as the standard for data archiving and
#  transmission.
#
#  For information on this file format, follow the CIF links at
#  http://www.iucr.org
##########################################################################

data_image0

_cell_length_a                          7.9172
_cell_length_b                          20.3854
_cell_length_c                          17.7768
_cell_angle_alpha                       90
_cell_angle_beta                        90
_cell_angle_gamma                       90
_symmetry_space_group_name_H-M          'P 1'
_symmetry_int_tables_number             1
loop_
  _symmetry_equiv_pos_as_xyz
         'x, y, z' 
loop_
  _atom_site_label
  _atom_site_occupancy
  _atom_site_fract_x
  _atom_site_fract_y
  _atom_site_fract_z
  _atom_site_thermal_displace_type
  _atom_site_B_iso_or_equiv
  _atom_site_type_symbol
  _atom_site_charge
         C1        1.0000    0.77950   0.95740   0.77600   Biso      1.000     C          0.114406  
         C2        1.0000    0.78300   0.55730   0.27740   Biso      1.000     C          0.103037  
         C3        1.0000    0.72050   0.45740   0.22400   Biso      1.000     C          0.114403  
         C4        1.0000    0.25160   0.25590   0.06810   Biso      1.000     C          -0.171519           
         C5        1.0000    0.29170   0.18900   0.06770   Biso      1.000     C          -0.042789           
         C6        1.0000    0.26500   0.46090   0.34540   Biso      1.000     C          -0.200495           
         C7        1.0000    0.34340   0.52030   0.35590   Biso      1.000     C          0.18152   
         C8        1.0000    0.36000   0.56020   0.29330   Biso      1.000     C          -0.179278           
         C9        1.0000    0.41400   0.54570   0.42980   Biso      1.000     C          -0.380509           
         C10       1.0000    0.21700   0.44270   0.27740   Biso      1.000     C          0.10308   
         C11       1.0000    0.27950   0.54260   0.22400   Biso      1.000     C          0.114405  
         C12       1.0000    0.75160   0.24410   0.06810   Biso      1.000     C          -0.171517           
         C13       1.0000    0.79170   0.31100   0.06770   Biso      1.000     C          -0.042789           
         C14       1.0000    0.76500   0.03910   0.34540   Biso      1.000     C          -0.200495           
         C15       1.0000    0.84340   0.97970   0.35590   Biso      1.000     C          0.18152   
         C16       1.0000    0.86000   0.93980   0.29330   Biso      1.000     C          -0.179277           
         C17       1.0000    0.58600   0.45430   0.42980   Biso      1.000     C          -0.380509           
         C18       1.0000    0.91400   0.95430   0.42980   Biso      1.000     C          -0.380509           
         C19       1.0000    0.64000   0.43980   0.29330   Biso      1.000     C          -0.179282           
         C20       1.0000    0.73500   0.53910   0.34540   Biso      1.000     C          -0.200452           
         C21       1.0000    0.23500   0.96090   0.65460   Biso      1.000     C          -0.200495           
         C22       1.0000    0.15660   0.02030   0.64410   Biso      1.000     C          0.181519  
         C23       1.0000    0.14000   0.06020   0.70670   Biso      1.000     C          -0.179278           
         C24       1.0000    0.08600   0.04570   0.57020   Biso      1.000     C          -0.380509           
         C25       1.0000    0.28300   0.94270   0.72260   Biso      1.000     C          0.10308   
         C26       1.0000    0.22050   0.04260   0.77600   Biso      1.000     C          0.114404  
         C27       1.0000    0.75160   0.24410   0.93190   Biso      1.000     C          -0.171519           
         C28       1.0000    0.79170   0.31100   0.93230   Biso      1.000     C          -0.042789           
         C29       1.0000    0.76500   0.03910   0.65460   Biso      1.000     C          -0.200495           
         C30       1.0000    0.84340   0.97970   0.64410   Biso      1.000     C          0.181521  
         C31       1.0000    0.86000   0.93980   0.70670   Biso      1.000     C          -0.179277           
         C32       1.0000    0.91400   0.95430   0.57020   Biso      1.000     C          -0.380508           
         C33       1.0000    0.71700   0.05730   0.72260   Biso      1.000     C          0.10308   
         C34       1.0000    0.74840   0.74410   0.06810   Biso      1.000     C          -0.171518           
         C35       1.0000    0.70830   0.81100   0.06770   Biso      1.000     C          -0.042788           
         C36       1.0000    0.65660   0.47970   0.35590   Biso      1.000     C          0.181518  
         C37       1.0000    0.71700   0.05730   0.27740   Biso      1.000     C          0.10308   
         C38       1.0000    0.77950   0.95740   0.22400   Biso      1.000     C          0.114405  
         C39       1.0000    0.24840   0.75590   0.06810   Biso      1.000     C          -0.171518           
         C40       1.0000    0.58600   0.45430   0.57020   Biso      1.000     C          -0.380508           
         C41       1.0000    0.78300   0.55730   0.72260   Biso      1.000     C          0.103038  
         C42       1.0000    0.72050   0.45740   0.77600   Biso      1.000     C          0.114405  
         C43       1.0000    0.26800   0.78850   0.00000   Biso      1.000     C          -0.08646  
         C44       1.0000    0.18670   0.65610   0.00000   Biso      1.000     C          -0.161085           
         C45       1.0000    0.73200   0.21150   0.00000   Biso      1.000     C          -0.086459           
         C46       1.0000    0.81330   0.34390   0.00000   Biso      1.000     C          -0.161081           
         C47       1.0000    0.76800   0.71150   0.00000   Biso      1.000     C          -0.086459           
         C48       1.0000    0.68670   0.84390   0.00000   Biso      1.000     C          -0.161081           
         C49       1.0000    0.23200   0.28850   0.00000   Biso      1.000     C          -0.08646  
         C50       1.0000    0.31330   0.15610   0.00000   Biso      1.000     C          -0.161081           
         C51       1.0000    0.16100   0.01210   0.50000   Biso      1.000     C          0.033957  
         C52       1.0000    0.83900   0.98790   0.50000   Biso      1.000     C          0.033956  
         C53       1.0000    0.66100   0.48790   0.50000   Biso      1.000     C          0.033955  
         C54       1.0000    0.33900   0.51210   0.50000   Biso      1.000     C          0.033956  
         C55       1.0000    0.64000   0.43980   0.70670   Biso      1.000     C          -0.17928  
         C56       1.0000    0.65660   0.47970   0.64410   Biso      1.000     C          0.181515  
         C57       1.0000    0.73500   0.53910   0.65460   Biso      1.000     C          -0.200447           
         C58       1.0000    0.70830   0.81100   0.93230   Biso      1.000     C          -0.042788           
         C59       1.0000    0.20830   0.68900   0.06770   Biso      1.000     C          -0.042788           
         C60       1.0000    0.23500   0.96090   0.34540   Biso      1.000     C          -0.200496           
         C61       1.0000    0.15660   0.02030   0.35590   Biso      1.000     C          0.181519  
         C62       1.0000    0.14000   0.06020   0.29330   Biso      1.000     C          -0.179278           
         C63       1.0000    0.08600   0.04570   0.42980   Biso      1.000     C          -0.380509           
         C64       1.0000    0.28300   0.94270   0.27740   Biso      1.000     C          0.10308   
         C65       1.0000    0.22050   0.04260   0.22400   Biso      1.000     C          0.114404  
         C66       1.0000    0.20830   0.68900   0.93230   Biso      1.000     C          -0.042788           
         C67       1.0000    0.25160   0.25590   0.93190   Biso      1.000     C          -0.171518           
         C68       1.0000    0.26500   0.46090   0.65460   Biso      1.000     C          -0.200494           
         C69       1.0000    0.34340   0.52030   0.64410   Biso      1.000     C          0.18152   
         C70       1.0000    0.36000   0.56020   0.70670   Biso      1.000     C          -0.179278           
         C71       1.0000    0.41400   0.54570   0.57020   Biso      1.000     C          -0.380508           
         C72       1.0000    0.21700   0.44270   0.72260   Biso      1.000     C          0.103081  
         C73       1.0000    0.27950   0.54260   0.77600   Biso      1.000     C          0.114406  
         C74       1.0000    0.74840   0.74410   0.93190   Biso      1.000     C          -0.171518           
         C75       1.0000    0.29170   0.18900   0.93230   Biso      1.000     C          -0.042788           
         C76       1.0000    0.24840   0.75590   0.93190   Biso      1.000     C          -0.171517           
         Cu1       1.0000    0.33031   0.95139   0.89378   Biso      1.000     Cu          0.921548  
         Cu2       1.0000    0.66969   0.04861   0.89378   Biso      1.000     Cu          0.921554  
         Cu3       1.0000    0.83031   0.54861   0.10622   Biso      1.000     Cu          0.921554  
         Cu4       1.0000    0.16969   0.45139   0.10622   Biso      1.000     Cu          0.921552  
         Cu5       1.0000    0.66969   0.04861   0.10622   Biso      1.000     Cu          0.921551  
         Cu6       1.0000    0.33031   0.95139   0.10622   Biso      1.000     Cu          0.921548  
         Cu7       1.0000    0.16969   0.45139   0.89378   Biso      1.000     Cu          0.921554  
         Cu8       1.0000    0.83031   0.54861   0.89378   Biso      1.000     Cu          0.921551  
         H1        1.0000    0.69610   0.83420   0.88560   Biso      1.000     H          0.116374  
         H2        1.0000    0.52910   0.71030   0.18760   Biso      1.000     H          0.434277  
         H3        1.0000    0.69610   0.83420   0.11440   Biso      1.000     H          0.116374  
         H4        1.0000    0.76170   0.56670   0.38750   Biso      1.000     H          0.126087  
         H5        1.0000    0.57590   0.39990   0.29620   Biso      1.000     H          0.145143  
         H6        1.0000    0.60790   0.40800   0.43270   Biso      1.000     H          0.172041  
         H7        1.0000    0.46610   0.46030   0.43030   Biso      1.000     H          0.161259  
         H8        1.0000    0.30390   0.16580   0.11440   Biso      1.000     H          0.116374  
         H9        1.0000    0.70100   0.43200   0.18200   Biso      1.000     H          0.119325  
         H10       1.0000    0.47090   0.28970   0.18760   Biso      1.000     H          0.434277  
         H11       1.0000    0.79900   0.93200   0.81800   Biso      1.000     H          0.119325  
         H12       1.0000    0.23830   0.43330   0.38750   Biso      1.000     H          0.126092  
         H13       1.0000    0.42410   0.60010   0.29620   Biso      1.000     H          0.145142  
         H14       1.0000    0.80450   0.60300   0.26900   Biso      1.000     H          0.104594  
         H15       1.0000    0.69550   0.10300   0.73100   Biso      1.000     H          0.104593  
         H16       1.0000    0.73830   0.06670   0.61250   Biso      1.000     H          0.126093  
         H17       1.0000    0.89210   0.90800   0.56730   Biso      1.000     H          0.172041  
         H18       1.0000    0.92410   0.89990   0.70380   Biso      1.000     H          0.145144  
         H19       1.0000    0.39210   0.59200   0.43270   Biso      1.000     H          0.172042  
         H20       1.0000    0.80390   0.33420   0.88560   Biso      1.000     H          0.116374  
         H21       1.0000    0.97090   0.21030   0.81240   Biso      1.000     H          0.434277  
         H22       1.0000    0.20100   0.06800   0.81800   Biso      1.000     H          0.119325  
         H23       1.0000    0.30450   0.89700   0.73100   Biso      1.000     H          0.104592  
         H24       1.0000    0.96610   0.03970   0.56970   Biso      1.000     H          0.161258  
         H25       1.0000    0.10790   0.09200   0.56730   Biso      1.000     H          0.172042  
         H26       1.0000    0.07590   0.10010   0.70380   Biso      1.000     H          0.145142  
         H27       1.0000    0.52910   0.71030   0.81240   Biso      1.000     H          0.434276  
         H28       1.0000    0.19610   0.66580   0.88560   Biso      1.000     H          0.116373  
         H29       1.0000    0.02910   0.78970   0.81240   Biso      1.000     H          0.434276  
         H30       1.0000    0.03390   0.96030   0.56970   Biso      1.000     H          0.161259  
         H31       1.0000    0.53390   0.53970   0.43030   Biso      1.000     H          0.161258  
         H32       1.0000    0.26170   0.93330   0.61250   Biso      1.000     H          0.126092  
         H33       1.0000    0.29900   0.56800   0.18200   Biso      1.000     H          0.119324  
         H34       1.0000    0.42410   0.60010   0.70380   Biso      1.000     H          0.145142  
         H35       1.0000    0.39210   0.59200   0.56730   Biso      1.000     H          0.17204   
         H36       1.0000    0.53390   0.53970   0.56970   Biso      1.000     H          0.161258  
         H37       1.0000    0.19550   0.39700   0.73100   Biso      1.000     H          0.104591  
         H38       1.0000    0.29900   0.56800   0.81800   Biso      1.000     H          0.119324  
         H39       1.0000    0.19100   0.32600   0.00000   Biso      1.000     H          0.114443  
         H40       1.0000    0.80900   0.67400   0.00000   Biso      1.000     H          0.114443  
         H41       1.0000    0.69100   0.17400   0.00000   Biso      1.000     H          0.114443  
         H42       1.0000    0.30900   0.82600   0.00000   Biso      1.000     H          0.114443  
         H43       1.0000    0.70100   0.43200   0.81800   Biso      1.000     H          0.119323  
         H44       1.0000    0.80450   0.60300   0.73100   Biso      1.000     H          0.104594  
         H45       1.0000    0.46610   0.46030   0.56970   Biso      1.000     H          0.161258  
         H46       1.0000    0.19550   0.39700   0.26900   Biso      1.000     H          0.104592  
         H47       1.0000    0.57590   0.39990   0.70380   Biso      1.000     H          0.145142  
         H48       1.0000    0.76170   0.56670   0.61250   Biso      1.000     H          0.126088  
         H49       1.0000    0.23830   0.43330   0.61250   Biso      1.000     H          0.126092  
         H50       1.0000    0.30390   0.16580   0.88560   Biso      1.000     H          0.116374  
         H51       1.0000    0.60790   0.40800   0.56730   Biso      1.000     H          0.172042  
         H52       1.0000    0.20100   0.06800   0.18200   Biso      1.000     H          0.119324  
         H53       1.0000    0.89210   0.90800   0.43270   Biso      1.000     H          0.172044  
         H54       1.0000    0.92410   0.89990   0.29620   Biso      1.000     H          0.145143  
         H55       1.0000    0.73830   0.06670   0.38750   Biso      1.000     H          0.126093  
         H56       1.0000    0.80390   0.33420   0.11440   Biso      1.000     H          0.116375  
         H57       1.0000    0.97090   0.21030   0.18760   Biso      1.000     H          0.434277  
         H58       1.0000    0.69550   0.10300   0.26900   Biso      1.000     H          0.104592  
         H59       1.0000    0.79900   0.93200   0.18200   Biso      1.000     H          0.119324  
         H60       1.0000    0.03390   0.96030   0.43030   Biso      1.000     H          0.161259  
         H61       1.0000    0.47090   0.28970   0.81240   Biso      1.000     H          0.434277  
         H62       1.0000    0.19610   0.66580   0.11440   Biso      1.000     H          0.116375  
         H63       1.0000    0.26170   0.93330   0.38750   Biso      1.000     H          0.126095  
         H64       1.0000    0.07590   0.10010   0.29620   Biso      1.000     H          0.145143  
         H65       1.0000    0.10790   0.09200   0.43270   Biso      1.000     H          0.172044  
         H66       1.0000    0.96610   0.03970   0.43030   Biso      1.000     H          0.161259  
         H67       1.0000    0.30450   0.89700   0.26900   Biso      1.000     H          0.104592  
         H68       1.0000    0.02910   0.78970   0.18760   Biso      1.000     H          0.434277  
         N1        1.0000    0.21040   0.48300   0.78750   Biso      1.000     N          -0.253633           
         N2        1.0000    0.71040   0.01700   0.21250   Biso      1.000     N          -0.253631           
         N3        1.0000    0.21040   0.48300   0.21250   Biso      1.000     N          -0.253632           
         N4        1.0000    0.78960   0.51700   0.21250   Biso      1.000     N          -0.253628           
         N5        1.0000    0.71040   0.01700   0.78750   Biso      1.000     N          -0.253631           
         N6        1.0000    0.28960   0.98300   0.78750   Biso      1.000     N          -0.253631           
         N7        1.0000    0.28960   0.98300   0.21250   Biso      1.000     N          -0.253631           
         N8        1.0000    0.78960   0.51700   0.78750   Biso      1.000     N          -0.253628           
         O1        1.0000    0.68300   0.95871   0.92770   Biso      1.000     O          -0.774571           
         O2        1.0000    0.15050   0.25635   0.21340   Biso      1.000     O          -0.748332           
         O3        1.0000    0.31700   0.04129   0.92770   Biso      1.000     O          -0.774573           
         O4        1.0000    0.63080   0.13714   0.13903   Biso      1.000     O          -0.741844           
         O5        1.0000    0.91160   0.17710   0.17835   Biso      1.000     O          -0.701437           
         O6        1.0000    0.65050   0.24365   0.21340   Biso      1.000     O          -0.748332           
         O7        1.0000    0.81700   0.45871   0.92770   Biso      1.000     O          -0.77457  
         O8        1.0000    0.36920   0.86286   0.13903   Biso      1.000     O          -0.741846           
         O9        1.0000    0.08840   0.82290   0.17835   Biso      1.000     O          -0.701439           
         O10       1.0000    0.34950   0.75635   0.21340   Biso      1.000     O          -0.748334           
         O11       1.0000    0.41160   0.32290   0.17835   Biso      1.000     O          -0.701437           
         O12       1.0000    0.18300   0.54129   0.92770   Biso      1.000     O          -0.774573           
         O13       1.0000    0.41160   0.32290   0.82165   Biso      1.000     O          -0.701437           
         O14       1.0000    0.15050   0.25635   0.78660   Biso      1.000     O          -0.748334           
         O15       1.0000    0.31700   0.04129   0.07230   Biso      1.000     O          -0.774572           
         O16       1.0000    0.86920   0.63714   0.86097   Biso      1.000     O          -0.741839           
         O17       1.0000    0.58840   0.67710   0.82165   Biso      1.000     O          -0.701436           
         O18       1.0000    0.84950   0.74365   0.78660   Biso      1.000     O          -0.74833  
         O19       1.0000    0.68300   0.95871   0.07230   Biso      1.000     O          -0.774571           
         O20       1.0000    0.92440   0.57007   0.00000   Biso      1.000     O          -0.743557           
         O21       1.0000    0.07560   0.42993   0.00000   Biso      1.000     O          -0.743559           
         O22       1.0000    0.13080   0.36286   0.86097   Biso      1.000     O          -0.741846           
         O23       1.0000    0.13080   0.36286   0.13903   Biso      1.000     O          -0.741844           
         O24       1.0000    0.57560   0.07007   0.00000   Biso      1.000     O          -0.743556           
         O25       1.0000    0.84950   0.74365   0.21340   Biso      1.000     O          -0.748333           
         O26       1.0000    0.36920   0.86286   0.86097   Biso      1.000     O          -0.741846           
         O27       1.0000    0.08840   0.82290   0.82165   Biso      1.000     O          -0.701438           
         O28       1.0000    0.34950   0.75635   0.78660   Biso      1.000     O          -0.748334           
         O29       1.0000    0.18300   0.54129   0.07230   Biso      1.000     O          -0.774571           
         O30       1.0000    0.63080   0.13714   0.86097   Biso      1.000     O          -0.741844           
         O31       1.0000    0.42440   0.92993   0.00000   Biso      1.000     O          -0.743558           
         O32       1.0000    0.65050   0.24365   0.78660   Biso      1.000     O          -0.748331           
         O33       1.0000    0.81700   0.45871   0.07230   Biso      1.000     O          -0.774575           
         O34       1.0000    0.86920   0.63714   0.13903   Biso      1.000     O          -0.741846           
         O35       1.0000    0.58840   0.67710   0.17835   Biso      1.000     O          -0.701437           
         O36       1.0000    0.91160   0.17710   0.82165   Biso      1.000     O          -0.701437           
         P1        1.0000    0.77112   0.69935   0.15514   Biso      1.000     P          1.263327  
         P2        1.0000    0.22888   0.30065   0.15514   Biso      1.000     P          1.263323  
         P3        1.0000    0.72888   0.19935   0.15514   Biso      1.000     P          1.263322  
         P4        1.0000    0.27112   0.80065   0.15514   Biso      1.000     P          1.263324  
         P5        1.0000    0.22888   0.30065   0.84486   Biso      1.000     P          1.263325  
         P6        1.0000    0.11970   0.57155   0.00000   Biso      1.000     P          1.305547  
         P7        1.0000    0.88030   0.42845   0.00000   Biso      1.000     P          1.305546  
         P8        1.0000    0.61970   0.92845   0.00000   Biso      1.000     P          1.305546  
         P9        1.0000    0.38030   0.07155   0.00000   Biso      1.000     P          1.305545  
         P10       1.0000    0.27112   0.80065   0.84486   Biso      1.000     P          1.263324  
         P11       1.0000    0.77112   0.69935   0.84486   Biso      1.000     P          1.263321  
         P12       1.0000    0.72888   0.19935   0.84486   Biso      1.000     P          1.263324 