
##########################################################################
#               Crystallographic Information Format file
#               Produced by PyCifRW module
#
#  This is a CIF file.  CIF has been adopted by the International
#  Union of Crystallography as the standard for data archiving and
#  transmission.
#
#  For information on this file format, follow the CIF links at
#  http://www.iucr.org
##########################################################################

data_image0

_cell_length_a                          10.022
_cell_length_b                          10.182
_cell_length_c                          10.619
_cell_angle_alpha                       72.983
_cell_angle_beta                        62.182
_cell_angle_gamma                       63.997
_symmetry_space_group_name_H-M          'P 1'
_symmetry_int_tables_number             1
loop_
  _symmetry_equiv_pos_as_xyz
         'x, y, z' 
loop_
  _atom_site_label
  _atom_site_occupancy
  _atom_site_fract_x
  _atom_site_fract_y
  _atom_site_fract_z
  _atom_site_thermal_displace_type
  _atom_site_B_iso_or_equiv
  _atom_site_type_symbol
  _atom_site_charge
         C1        1.0000    0.72590   0.48140   0.01230   Biso      1.000     C          -0.07408  
         C2        1.0000    0.27410   0.51860   0.98770   Biso      1.000     C          -0.074087           
         C3        1.0000    0.35650   0.58690   0.85820   Biso      1.000     C          -0.138472           
         C4        1.0000    0.39770   0.70000   0.85920   Biso      1.000     C          -0.042296           
         C5        1.0000    0.35580   0.74470   0.98860   Biso      1.000     C          -0.154281           
         C6        1.0000    0.27760   0.67190   0.11770   Biso      1.000     C          -0.033022           
         C7        1.0000    0.23750   0.55600   0.11770   Biso      1.000     C          -0.148954           
         C8        1.0000    0.64350   0.41310   0.14180   Biso      1.000     C          -0.138499           
         C9        1.0000    0.60230   0.30000   0.14080   Biso      1.000     C          -0.042272           
         C10       1.0000    0.64420   0.25530   0.01140   Biso      1.000     C          -0.154273           
         C11       1.0000    0.72240   0.32810   0.88230   Biso      1.000     C          -0.033065           
         C12       1.0000    0.76250   0.44400   0.88230   Biso      1.000     C          -0.148931           
         Cu1       1.0000    0.22877   0.49947   0.53742   Biso      1.000     Cu          1.135091  
         Cu2       1.0000    0.42925   0.18211   0.80104   Biso      1.000     Cu          0.912657  
         Cu3       1.0000    0.24864   0.14313   0.18630   Biso      1.000     Cu          0.908573  
         Cu4       1.0000    0.77123   0.50053   0.46258   Biso      1.000     Cu          1.135127  
         Cu5       1.0000    0.57075   0.81789   0.19896   Biso      1.000     Cu          0.912645  
         Cu6       1.0000    0.75136   0.85687   0.81370   Biso      1.000     Cu          0.908569  
         H1        1.0000    0.54700   0.25100   0.21700   Biso      1.000     H          0.133835  
         H2        1.0000    0.75900   0.54200   0.01800   Biso      1.000     H          0.118018  
         H3        1.0000    0.26900   0.68800   0.20700   Biso      1.000     H          0.120623  
         H4        1.0000    0.45300   0.74900   0.78300   Biso      1.000     H          0.133824  
         H5        1.0000    0.24100   0.45800   0.98200   Biso      1.000     H          0.118023  
         H6        1.0000    0.73100   0.31200   0.79300   Biso      1.000     H          0.120623  
         O1        1.0000    0.49950   0.65280   0.28140   Biso      1.000     O          -0.760054           
         O2        1.0000    0.57750   0.01380   0.15030   Biso      1.000     O          -0.763409           
         O3        1.0000    0.16610   0.49820   0.39670   Biso      1.000     O          -0.756613           
         O4        1.0000    0.76880   0.70640   0.73060   Biso      1.000     O          -0.758711           
         O5        1.0000    0.96840   0.51070   0.30620   Biso      1.000     O          -0.73904  
         O6        1.0000    0.26670   0.56030   0.67070   Biso      1.000     O          -0.712207           
         O7        1.0000    0.57270   0.82650   0.00530   Biso      1.000     O          -0.749206           
         O8        1.0000    0.27890   0.96530   0.12650   Biso      1.000     O          -0.764841           
         O9        1.0000    0.23120   0.29360   0.26940   Biso      1.000     O          -0.758686           
         O10       1.0000    0.54100   0.58270   0.57590   Biso      1.000     O          -0.71019  
         O11       1.0000    0.72110   0.03470   0.87350   Biso      1.000     O          -0.764838           
         O12       1.0000    0.45900   0.41730   0.42410   Biso      1.000     O          -0.710237           
         O13       1.0000    0.73330   0.43970   0.32930   Biso      1.000     O          -0.712179           
         O14       1.0000    0.03160   0.48930   0.69380   Biso      1.000     O          -0.739069           
         O15       1.0000    0.83390   0.50180   0.60330   Biso      1.000     O          -0.756601           
         O16       1.0000    0.50050   0.34720   0.71860   Biso      1.000     O          -0.76006  
         O17       1.0000    0.42730   0.17350   0.99470   Biso      1.000     O          -0.749212           
         O18       1.0000    0.42250   0.98620   0.84970   Biso      1.000     O          -0.763405           
         P1        1.0000    0.85454   0.54252   0.71595   Biso      1.000     P          1.353363  
         P2        1.0000    0.59272   0.10921   0.00747   Biso      1.000     P          1.322572  
         P3        1.0000    0.57944   0.48551   0.30451   Biso      1.000     P          1.300679  
         P4        1.0000    0.14546   0.45748   0.28405   Biso      1.000     P          1.35331   
         P5        1.0000    0.40728   0.89079   0.99253   Biso      1.000     P          1.322571  
         P6        1.0000    0.42056   0.51449   0.69549   Biso      1.000     P          1.300689 