
##########################################################################
#               Crystallographic Information Format file
#               Produced by PyCifRW module
#
#  This is a CIF file.  CIF has been adopted by the International
#  Union of Crystallography as the standard for data archiving and
#  transmission.
#
#  For information on this file format, follow the CIF links at
#  http://www.iucr.org
##########################################################################

data_image0

_cell_length_a                          9.724
_cell_length_b                          10.764
_cell_length_c                          26.969
_cell_angle_alpha                       90
_cell_angle_beta                        90
_cell_angle_gamma                       90
_symmetry_space_group_name_H-M          'P 1'
_symmetry_int_tables_number             1
loop_
  _symmetry_equiv_pos_as_xyz
         'x, y, z' 
loop_
  _atom_site_label
  _atom_site_occupancy
  _atom_site_fract_x
  _atom_site_fract_y
  _atom_site_fract_z
  _atom_site_thermal_displace_type
  _atom_site_B_iso_or_equiv
  _atom_site_type_symbol
  _atom_site_charge
         C1        1.0000    0.03300   0.83600   0.51520   Biso      1.000     C          -0.528046           
         C2        1.0000    0.90590   0.11950   0.46070   Biso      1.000     C          0.234438  
         C3        1.0000    0.41630   0.18190   0.30870   Biso      1.000     C          0.589584  
         C4        1.0000    0.03650   0.88310   0.23720   Biso      1.000     C          0.070564  
         C5        1.0000    0.08390   0.82680   0.18830   Biso      1.000     C          0.598731  
         C6        1.0000    0.71770   0.02850   0.43650   Biso      1.000     C          0.214494  
         C7        1.0000    0.47690   0.14080   0.25810   Biso      1.000     C          0.079208  
         C8        1.0000    0.80840   0.03550   0.47664   Biso      1.000     C          -0.160796           
         C9        1.0000    0.89810   0.05840   0.06790   Biso      1.000     C          -0.532534           
         C10       1.0000    0.03300   0.16400   0.48480   Biso      1.000     C          -0.528047           
         C11       1.0000    0.68430   0.96480   0.02354   Biso      1.000     C          -0.161988           
         C12       1.0000    0.48170   0.25150   0.22260   Biso      1.000     C          -0.487749           
         C13       1.0000    0.77830   0.97470   0.06190   Biso      1.000     C          0.230228  
         C14       1.0000    0.58780   0.87840   0.03850   Biso      1.000     C          0.239713  
         C15       1.0000    0.46380   0.82840   0.01480   Biso      1.000     C          -0.533663           
         C16       1.0000    0.58310   0.95430   0.43210   Biso      1.000     C          -0.53326  
         C17       1.0000    0.12820   0.98880   0.25290   Biso      1.000     C          -0.489511           
         C18       1.0000    0.68550   0.02650   0.23766   Biso      1.000     C          0.344809  
         C19       1.0000    0.12820   0.01120   0.74710   Biso      1.000     C          -0.489513           
         C20       1.0000    0.80840   0.96450   0.52336   Biso      1.000     C          -0.160793           
         C21       1.0000    0.90590   0.88050   0.53930   Biso      1.000     C          0.234436  
         C22       1.0000    0.41630   0.81810   0.69130   Biso      1.000     C          0.589588  
         C23       1.0000    0.03650   0.11690   0.76280   Biso      1.000     C          0.070563  
         C24       1.0000    0.08390   0.17320   0.81170   Biso      1.000     C          0.598733  
         C25       1.0000    0.71770   0.97150   0.56350   Biso      1.000     C          0.214498  
         C26       1.0000    0.82040   0.98800   0.26030   Biso      1.000     C          0.366841  
         C27       1.0000    0.47690   0.85920   0.74190   Biso      1.000     C          0.079214  
         C28       1.0000    0.58310   0.04570   0.56790   Biso      1.000     C          -0.533256           
         C29       1.0000    0.68430   0.03520   0.97646   Biso      1.000     C          -0.161995           
         C30       1.0000    0.48170   0.74850   0.77740   Biso      1.000     C          -0.487749           
         C31       1.0000    0.77830   0.02530   0.93810   Biso      1.000     C          0.230227  
         C32       1.0000    0.58780   0.12160   0.96150   Biso      1.000     C          0.239712  
         C33       1.0000    0.46380   0.17160   0.98520   Biso      1.000     C          -0.533664           
         C34       1.0000    0.89810   0.94160   0.93210   Biso      1.000     C          -0.532538           
         C35       1.0000    0.17960   0.48800   0.23970   Biso      1.000     C          0.366841  
         C36       1.0000    0.31450   0.52650   0.26234   Biso      1.000     C          0.344811  
         C37       1.0000    0.19160   0.53550   0.02336   Biso      1.000     C          -0.160792           
         C38       1.0000    0.58370   0.31810   0.80870   Biso      1.000     C          0.589587  
         C39       1.0000    0.96350   0.61690   0.73720   Biso      1.000     C          0.070565  
         C40       1.0000    0.91610   0.67320   0.68830   Biso      1.000     C          0.598731  
         C41       1.0000    0.28230   0.47150   0.93650   Biso      1.000     C          0.214498  
         C42       1.0000    0.52310   0.35920   0.75810   Biso      1.000     C          0.079213  
         C43       1.0000    0.10190   0.44160   0.56790   Biso      1.000     C          -0.532538           
         C44       1.0000    0.09410   0.38050   0.96070   Biso      1.000     C          0.234433  
         C45       1.0000    0.41690   0.54570   0.93210   Biso      1.000     C          -0.533255           
         C46       1.0000    0.31570   0.53520   0.52354   Biso      1.000     C          -0.161989           
         C47       1.0000    0.51830   0.24850   0.72260   Biso      1.000     C          -0.487751           
         C48       1.0000    0.22170   0.52530   0.56190   Biso      1.000     C          0.230229  
         C49       1.0000    0.41220   0.62160   0.53850   Biso      1.000     C          0.239715  
         C50       1.0000    0.53620   0.67160   0.51480   Biso      1.000     C          -0.533667           
         C51       1.0000    0.87180   0.51120   0.75290   Biso      1.000     C          -0.489513           
         C52       1.0000    0.96700   0.33600   0.98480   Biso      1.000     C          -0.528043           
         C53       1.0000    0.19160   0.46450   0.97664   Biso      1.000     C          -0.160796           
         C54       1.0000    0.31450   0.47350   0.73766   Biso      1.000     C          0.34481   
         C55       1.0000    0.17960   0.51200   0.76030   Biso      1.000     C          0.366845  
         C56       1.0000    0.09410   0.61950   0.03930   Biso      1.000     C          0.23444   
         C57       1.0000    0.58370   0.68190   0.19130   Biso      1.000     C          0.589589  
         C58       1.0000    0.96350   0.38310   0.26280   Biso      1.000     C          0.070563  
         C59       1.0000    0.91610   0.32680   0.31170   Biso      1.000     C          0.598726  
         C60       1.0000    0.28230   0.52850   0.06350   Biso      1.000     C          0.214496  
         C61       1.0000    0.52310   0.64080   0.24190   Biso      1.000     C          0.079216  
         C62       1.0000    0.10190   0.55840   0.43210   Biso      1.000     C          -0.532541           
         C63       1.0000    0.41690   0.45430   0.06790   Biso      1.000     C          -0.533254           
         C64       1.0000    0.96700   0.66400   0.01520   Biso      1.000     C          -0.528042           
         C65       1.0000    0.31570   0.46480   0.47646   Biso      1.000     C          -0.161996           
         C66       1.0000    0.51830   0.75150   0.27740   Biso      1.000     C          -0.48775  
         C67       1.0000    0.22170   0.47470   0.43810   Biso      1.000     C          0.230226  
         C68       1.0000    0.41220   0.37840   0.46150   Biso      1.000     C          0.239712  
         C69       1.0000    0.53620   0.32840   0.48520   Biso      1.000     C          -0.533669           
         C70       1.0000    0.87180   0.48880   0.24710   Biso      1.000     C          -0.489514           
         C71       1.0000    0.68550   0.97350   0.76234   Biso      1.000     C          0.344813  
         C72       1.0000    0.82040   0.01200   0.73970   Biso      1.000     C          0.366841  
         Cu1       1.0000    0.81320   0.11000   0.83391   Biso      1.000     Cu          0.7503    
         Cu2       1.0000    0.68646   0.88519   0.66774   Biso      1.000     Cu          0.715627  
         Cu3       1.0000    0.81320   0.89000   0.16609   Biso      1.000     Cu          0.750287  
         Cu4       1.0000    0.68646   0.11481   0.33226   Biso      1.000     Cu          0.71562   
         Cu5       1.0000    0.18680   0.39000   0.33391   Biso      1.000     Cu          0.750306  
         Cu6       1.0000    0.31354   0.61481   0.16774   Biso      1.000     Cu          0.715616  
         Cu7       1.0000    0.18680   0.61000   0.66609   Biso      1.000     Cu          0.750301  
         Cu8       1.0000    0.31354   0.38519   0.83226   Biso      1.000     Cu          0.715625  
         H1        1.0000    0.87360   0.55260   0.27190   Biso      1.000     H          0.156229  
         H2        1.0000    0.12640   0.94740   0.77190   Biso      1.000     H          0.156229  
         H3        1.0000    0.03440   0.81910   0.26310   Biso      1.000     H          0.097451  
         H4        1.0000    0.41830   0.07590   0.24380   Biso      1.000     H          0.090964  
         H5        1.0000    0.91290   0.21170   0.39850   Biso      1.000     H          0.288072  
         H6        1.0000    0.94320   0.04060   0.09870   Biso      1.000     H          0.169906  
         H7        1.0000    0.96130   0.04560   0.04100   Biso      1.000     H          0.168089  
         H8        1.0000    0.86740   0.14320   0.06780   Biso      1.000     H          0.176986  
         H9        1.0000    0.54290   0.96860   0.40010   Biso      1.000     H          0.171552  
         H10       1.0000    0.01010   0.20560   0.51520   Biso      1.000     H          0.17492   
         H11       1.0000    0.52020   0.98050   0.45740   Biso      1.000     H          0.165263  
         H12       1.0000    0.07960   0.22090   0.46310   Biso      1.000     H          0.178693  
         H13       1.0000    0.22060   0.04090   0.74310   Biso      1.000     H          0.155027  
         H14       1.0000    0.09200   0.09470   0.49180   Biso      1.000     H          0.171662  
         H15       1.0000    0.58610   0.77730   0.09940   Biso      1.000     H          0.296748  
         H16       1.0000    0.51740   0.22510   0.19120   Biso      1.000     H          0.162435  
         H17       1.0000    0.39060   0.28410   0.21830   Biso      1.000     H          0.158027  
         H18       1.0000    0.54020   0.31480   0.23620   Biso      1.000     H          0.163033  
         H19       1.0000    0.60220   0.86730   0.43590   Biso      1.000     H          0.170872  
         H20       1.0000    0.09600   0.97790   0.71620   Biso      1.000     H          0.168636  
         H21       1.0000    0.54020   0.68520   0.76380   Biso      1.000     H          0.163034  
         H22       1.0000    0.47370   0.25960   0.98960   Biso      1.000     H          0.174634  
         H23       1.0000    0.03440   0.18090   0.73690   Biso      1.000     H          0.097449  
         H24       1.0000    0.41830   0.92410   0.75620   Biso      1.000     H          0.090966  
         H25       1.0000    0.91290   0.78830   0.60150   Biso      1.000     H          0.288071  
         H26       1.0000    0.94320   0.95940   0.90130   Biso      1.000     H          0.169906  
         H27       1.0000    0.96130   0.95440   0.95900   Biso      1.000     H          0.168088  
         H28       1.0000    0.86740   0.85680   0.93220   Biso      1.000     H          0.176986  
         H29       1.0000    0.54290   0.03140   0.59990   Biso      1.000     H          0.171552  
         H30       1.0000    0.60220   0.13270   0.56410   Biso      1.000     H          0.170874  
         H31       1.0000    0.52020   0.01950   0.54260   Biso      1.000     H          0.165264  
         H32       1.0000    0.07960   0.77910   0.53690   Biso      1.000     H          0.178693  
         H33       1.0000    0.01010   0.79440   0.48480   Biso      1.000     H          0.174921  
         H34       1.0000    0.09200   0.90530   0.50820   Biso      1.000     H          0.171663  
         H35       1.0000    0.58610   0.22270   0.90060   Biso      1.000     H          0.296748  
         H36       1.0000    0.51740   0.77490   0.80880   Biso      1.000     H          0.162437  
         H37       1.0000    0.39060   0.71590   0.78170   Biso      1.000     H          0.158028  
         H38       1.0000    0.45120   0.86730   0.98310   Biso      1.000     H          0.176168  
         H39       1.0000    0.77940   0.45910   0.24310   Biso      1.000     H          0.155028  
         H40       1.0000    0.38530   0.15520   0.96460   Biso      1.000     H          0.18307   
         H41       1.0000    0.47370   0.74040   0.01040   Biso      1.000     H          0.174634  
         H42       1.0000    0.45120   0.13270   0.01690   Biso      1.000     H          0.176166  
         H43       1.0000    0.09600   0.02210   0.28380   Biso      1.000     H          0.168638  
         H44       1.0000    0.90400   0.47790   0.78380   Biso      1.000     H          0.168638  
         H45       1.0000    0.61470   0.65520   0.53540   Biso      1.000     H          0.183069  
         H46       1.0000    0.54880   0.63270   0.48310   Biso      1.000     H          0.176171  
         H47       1.0000    0.45980   0.18520   0.73620   Biso      1.000     H          0.163033  
         H48       1.0000    0.60940   0.21590   0.71830   Biso      1.000     H          0.158026  
         H49       1.0000    0.48260   0.27490   0.69120   Biso      1.000     H          0.162436  
         H50       1.0000    0.41390   0.72270   0.59940   Biso      1.000     H          0.296749  
         H51       1.0000    0.90800   0.40530   0.99180   Biso      1.000     H          0.17166   
         H52       1.0000    0.98990   0.29440   0.01520   Biso      1.000     H          0.174918  
         H53       1.0000    0.77940   0.54090   0.75690   Biso      1.000     H          0.155029  
         H54       1.0000    0.92040   0.27910   0.96310   Biso      1.000     H          0.178693  
         H55       1.0000    0.39780   0.63270   0.93590   Biso      1.000     H          0.170871  
         H56       1.0000    0.45710   0.53140   0.90010   Biso      1.000     H          0.171552  
         H57       1.0000    0.13260   0.35680   0.56780   Biso      1.000     H          0.176989  
         H58       1.0000    0.03870   0.45440   0.54100   Biso      1.000     H          0.168092  
         H59       1.0000    0.05680   0.45940   0.59870   Biso      1.000     H          0.169907  
         H60       1.0000    0.08710   0.28830   0.89850   Biso      1.000     H          0.288069  
         H61       1.0000    0.58170   0.42410   0.74380   Biso      1.000     H          0.090963  
         H62       1.0000    0.96560   0.68090   0.76310   Biso      1.000     H          0.097451  
         H63       1.0000    0.38530   0.84480   0.03540   Biso      1.000     H          0.183067  
         H64       1.0000    0.47980   0.51950   0.95740   Biso      1.000     H          0.165261  
         H65       1.0000    0.87360   0.44740   0.72810   Biso      1.000     H          0.156231  
         H66       1.0000    0.52630   0.75960   0.51040   Biso      1.000     H          0.174635  
         H67       1.0000    0.61470   0.34480   0.46460   Biso      1.000     H          0.183071  
         H68       1.0000    0.22060   0.95910   0.25690   Biso      1.000     H          0.155029  
         H69       1.0000    0.12640   0.05260   0.22810   Biso      1.000     H          0.15623   
         H70       1.0000    0.96560   0.31910   0.23690   Biso      1.000     H          0.097449  
         H71       1.0000    0.58170   0.57590   0.25620   Biso      1.000     H          0.090967  
         H72       1.0000    0.08710   0.71170   0.10150   Biso      1.000     H          0.288073  
         H73       1.0000    0.05680   0.54060   0.40130   Biso      1.000     H          0.169906  
         H74       1.0000    0.90400   0.52210   0.21620   Biso      1.000     H          0.168636  
         H75       1.0000    0.13260   0.64320   0.43220   Biso      1.000     H          0.176986  
         H76       1.0000    0.45710   0.46860   0.09990   Biso      1.000     H          0.171554  
         H77       1.0000    0.39780   0.36730   0.06410   Biso      1.000     H          0.170874  
         H78       1.0000    0.47980   0.48050   0.04260   Biso      1.000     H          0.165263  
         H79       1.0000    0.03870   0.54560   0.45900   Biso      1.000     H          0.168089  
         H80       1.0000    0.92040   0.72090   0.03690   Biso      1.000     H          0.178692  
         H81       1.0000    0.98990   0.70560   0.98480   Biso      1.000     H          0.174919  
         H82       1.0000    0.90800   0.59470   0.00820   Biso      1.000     H          0.17166   
         H83       1.0000    0.41390   0.27730   0.40060   Biso      1.000     H          0.296747  
         H84       1.0000    0.48260   0.72510   0.30880   Biso      1.000     H          0.16244   
         H85       1.0000    0.60940   0.78410   0.28170   Biso      1.000     H          0.15803   
         H86       1.0000    0.45980   0.81480   0.26380   Biso      1.000     H          0.163037  
         H87       1.0000    0.54880   0.36730   0.51690   Biso      1.000     H          0.176168  
         H88       1.0000    0.52630   0.24040   0.48960   Biso      1.000     H          0.174634  
         N1        1.0000    0.39090   0.59050   0.23205   Biso      1.000     N          -0.397975           
         N2        1.0000    0.10340   0.43010   0.27203   Biso      1.000     N          -0.42672  
         N3        1.0000    0.13200   0.65810   0.08422   Biso      1.000     N          -0.161043           
         N4        1.0000    0.37160   0.33430   0.41699   Biso      1.000     N          -0.17464  
         N5        1.0000    0.24780   0.39620   0.90089   Biso      1.000     N          -0.214573           
         N6        1.0000    0.13200   0.34190   0.91578   Biso      1.000     N          -0.161007           
         N7        1.0000    0.39090   0.40950   0.76795   Biso      1.000     N          -0.39797  
         N8        1.0000    0.10340   0.56990   0.72797   Biso      1.000     N          -0.426726           
         N9        1.0000    0.37160   0.66570   0.58301   Biso      1.000     N          -0.174638           
         N10       1.0000    0.25300   0.39280   0.40131   Biso      1.000     N          -0.241569           
         N11       1.0000    0.25300   0.60720   0.59869   Biso      1.000     N          -0.24157  
         N12       1.0000    0.24780   0.60380   0.09911   Biso      1.000     N          -0.214537           
         N13       1.0000    0.75220   0.89620   0.59911   Biso      1.000     N          -0.214574           
         N14       1.0000    0.86800   0.15810   0.41578   Biso      1.000     N          -0.161045           
         N15       1.0000    0.89660   0.93010   0.22797   Biso      1.000     N          -0.426719           
         N16       1.0000    0.60910   0.09050   0.26795   Biso      1.000     N          -0.397967           
         N17       1.0000    0.74700   0.89280   0.09869   Biso      1.000     N          -0.241573           
         N18       1.0000    0.75220   0.10380   0.40089   Biso      1.000     N          -0.214537           
         N19       1.0000    0.62840   0.16570   0.91699   Biso      1.000     N          -0.174637           
         N20       1.0000    0.86800   0.84190   0.58422   Biso      1.000     N          -0.16101  
         N21       1.0000    0.89660   0.06990   0.77203   Biso      1.000     N          -0.42672  
         N22       1.0000    0.60910   0.90950   0.73205   Biso      1.000     N          -0.397975           
         N23       1.0000    0.74700   0.10720   0.90131   Biso      1.000     N          -0.24157  
         N24       1.0000    0.62840   0.83430   0.08301   Biso      1.000     N          -0.174631           
         O1        1.0000    0.34120   0.49820   0.30780   Biso      1.000     O          -0.481795           
         O2        1.0000    0.00500   0.31600   0.34680   Biso      1.000     O          -0.568959           
         O3        1.0000    0.50250   0.67990   0.15393   Biso      1.000     O          -0.561884           
         O4        1.0000    0.70620   0.71530   0.18789   Biso      1.000     O          -0.561931           
         O5        1.0000    0.50250   0.32010   0.84607   Biso      1.000     O          -0.561888           
         O6        1.0000    0.15560   0.48640   0.80481   Biso      1.000     O          -0.470823           
         O7        1.0000    0.34120   0.50180   0.69220   Biso      1.000     O          -0.481799           
         O8        1.0000    0.00500   0.68400   0.65320   Biso      1.000     O          -0.568958           
         O9        1.0000    0.15560   0.51360   0.19519   Biso      1.000     O          -0.470822           
         O10       1.0000    0.79370   0.29660   0.31409   Biso      1.000     O          -0.563555           
         O11       1.0000    0.20630   0.79660   0.18591   Biso      1.000     O          -0.563544           
         O12       1.0000    0.84440   0.01360   0.30481   Biso      1.000     O          -0.470821           
         O13       1.0000    0.49750   0.17990   0.34607   Biso      1.000     O          -0.561886           
         O14       1.0000    0.99500   0.81600   0.15320   Biso      1.000     O          -0.568954           
         O15       1.0000    0.65880   0.99820   0.19220   Biso      1.000     O          -0.481795           
         O16       1.0000    0.20630   0.20340   0.81409   Biso      1.000     O          -0.563555           
         O17       1.0000    0.29380   0.78470   0.68789   Biso      1.000     O          -0.561935           
         O18       1.0000    0.49750   0.82010   0.65393   Biso      1.000     O          -0.561883           
         O19       1.0000    0.99500   0.18400   0.84680   Biso      1.000     O          -0.568962           
         O20       1.0000    0.65880   0.00180   0.80780   Biso      1.000     O          -0.481795           
         O21       1.0000    0.84440   0.98640   0.69519   Biso      1.000     O          -0.470821           
         O22       1.0000    0.70620   0.28470   0.81211   Biso      1.000     O          -0.561942           
         O23       1.0000    0.29380   0.21530   0.31211   Biso      1.000     O          -0.561944           
         O24       1.0000    0.79370   0.70340   0.68591   Biso      1.000     O          -0.563548 