
##########################################################################
#               Crystallographic Information Format file
#               Produced by PyCifRW module
#
#  This is a CIF file.  CIF has been adopted by the International
#  Union of Crystallography as the standard for data archiving and
#  transmission.
#
#  For information on this file format, follow the CIF links at
#  http://www.iucr.org
##########################################################################

data_image0

_cell_length_a                          10.6825
_cell_length_b                          12.3388
_cell_length_c                          17.126
_cell_angle_alpha                       90
_cell_angle_beta                        95.447
_cell_angle_gamma                       90
_symmetry_space_group_name_H-M          'P 1'
_symmetry_int_tables_number             1
loop_
  _symmetry_equiv_pos_as_xyz
         'x, y, z' 
loop_
  _atom_site_label
  _atom_site_occupancy
  _atom_site_fract_x
  _atom_site_fract_y
  _atom_site_fract_z
  _atom_site_thermal_displace_type
  _atom_site_B_iso_or_equiv
  _atom_site_type_symbol
  _atom_site_charge
         C1        1.0000    0.68380   0.75866   0.77631   Biso      1.000     C          0.39568400000000004           
         C2        1.0000    0.11900   0.03650   0.12755   Biso      1.000     C          -0.547393           
         C3        1.0000    0.21390   0.01058   0.07077   Biso      1.000     C          0.397206  
         C4        1.0000    0.32920   0.92684   0.99696   Biso      1.000     C          0.35283000000000003           
         C5        1.0000    0.38950   0.83666   0.95526   Biso      1.000     C          -0.373847           
         C6        1.0000    0.44450   0.74949   0.00855   Biso      1.000     C          0.362319  
         C7        1.0000    0.46820   0.62590   0.09555   Biso      1.000     C          0.402136  
         C8        1.0000    0.44510   0.55140   0.16080   Biso      1.000     C          -0.540024           
         C9        1.0000    0.90030   0.79640   0.12493   Biso      1.000     C          -0.551266           
         C10       1.0000    0.94660   0.73056   0.06086   Biso      1.000     C          0.401075  
         C11       1.0000    0.95080   0.63904   0.95584   Biso      1.000     C          0.349508  
         C12       1.0000    0.90560   0.58040   0.88161   Biso      1.000     C          -0.365078           
         C13       1.0000    0.08560   0.65530   0.26822   Biso      1.000     C          -0.548693           
         C14       1.0000    0.82320   0.64740   0.82413   Biso      1.000     C          0.338725  
         C15       1.0000    0.38100   0.53650   0.37245   Biso      1.000     C          -0.5473939999999999           
         C16       1.0000    0.28610   0.51058   0.42923   Biso      1.000     C          0.397206  
         C17       1.0000    0.17080   0.42684   0.50304   Biso      1.000     C          0.35283000000000003           
         C18       1.0000    0.11050   0.33666   0.54474   Biso      1.000     C          -0.373848           
         C19       1.0000    0.05550   0.24949   0.49145   Biso      1.000     C          0.362319  
         C20       1.0000    0.03180   0.12590   0.40445   Biso      1.000     C          0.402136  
         C21       1.0000    0.05490   0.05140   0.33920   Biso      1.000     C          -0.540024           
         C22       1.0000    0.59970   0.29640   0.37507   Biso      1.000     C          -0.5512670000000001           
         C23       1.0000    0.55340   0.23056   0.43914   Biso      1.000     C          0.401075  
         C24       1.0000    0.54920   0.13904   0.54416   Biso      1.000     C          0.349508  
         C25       1.0000    0.59440   0.08040   0.61839   Biso      1.000     C          -0.365078           
         C26       1.0000    0.58560   0.84470   0.76822   Biso      1.000     C          -0.548693           
         C27       1.0000    0.67680   0.14740   0.67587   Biso      1.000     C          0.338725  
         C28       1.0000    0.18380   0.74134   0.27631   Biso      1.000     C          0.39568400000000004           
         C29       1.0000    0.40560   0.91960   0.38161   Biso      1.000     C          -0.365078           
         C30       1.0000    0.88100   0.96350   0.87245   Biso      1.000     C          -0.547393           
         C31       1.0000    0.78610   0.98942   0.92923   Biso      1.000     C          0.397206  
         C32       1.0000    0.67080   0.07316   0.00304   Biso      1.000     C          0.35283000000000003           
         C33       1.0000    0.61050   0.16334   0.04474   Biso      1.000     C          -0.373848           
         C34       1.0000    0.55550   0.25051   0.99145   Biso      1.000     C          0.36232   
         C35       1.0000    0.53180   0.37410   0.90445   Biso      1.000     C          0.402136  
         C36       1.0000    0.55490   0.44860   0.83920   Biso      1.000     C          -0.540024           
         C37       1.0000    0.09970   0.20360   0.87507   Biso      1.000     C          -0.5512670000000001           
         C38       1.0000    0.05340   0.26944   0.93914   Biso      1.000     C          0.401075  
         C39       1.0000    0.04920   0.36096   0.04416   Biso      1.000     C          0.349508  
         C40       1.0000    0.09440   0.41960   0.11839   Biso      1.000     C          -0.365078           
         C41       1.0000    0.32320   0.85260   0.32413   Biso      1.000     C          0.338725  
         C42       1.0000    0.17680   0.35260   0.17587   Biso      1.000     C          0.338725  
         C43       1.0000    0.41440   0.15530   0.23178   Biso      1.000     C          -0.548693           
         C44       1.0000    0.61900   0.46350   0.62755   Biso      1.000     C          -0.547393           
         C45       1.0000    0.71390   0.48942   0.57077   Biso      1.000     C          0.397206  
         C46       1.0000    0.82920   0.57316   0.49696   Biso      1.000     C          0.35283000000000003           
         C47       1.0000    0.88950   0.66334   0.45526   Biso      1.000     C          -0.373848           
         C48       1.0000    0.94450   0.75051   0.50855   Biso      1.000     C          0.36232   
         C49       1.0000    0.96820   0.87410   0.59555   Biso      1.000     C          0.402136  
         C50       1.0000    0.94510   0.94860   0.66080   Biso      1.000     C          -0.540024           
         C51       1.0000    0.40030   0.70360   0.62493   Biso      1.000     C          -0.5512670000000001           
         C52       1.0000    0.44660   0.76944   0.56086   Biso      1.000     C          0.401075  
         C53       1.0000    0.45080   0.86096   0.45584   Biso      1.000     C          0.349508  
         C54       1.0000    0.31620   0.24134   0.22369   Biso      1.000     C          0.39568400000000004           
         C55       1.0000    0.91440   0.34470   0.73178   Biso      1.000     C          -0.548693           
         C56       1.0000    0.81620   0.25866   0.72369   Biso      1.000     C          0.39568400000000004           
         H1        1.0000    0.43310   0.13680   0.28730   Biso      1.000     H          0.172176  
         H2        1.0000    0.11730   0.11490   0.13630   Biso      1.000     H          0.17082999999999998           
         H3        1.0000    0.32570   0.80400   0.91650   Biso      1.000     H          0.15498699999999999           
         H4        1.0000    0.45680   0.86740   0.92600   Biso      1.000     H          0.148946  
         H5        1.0000    0.37280   0.50490   0.14470   Biso      1.000     H          0.168238  
         H6        1.0000    0.42750   0.59390   0.20680   Biso      1.000     H          0.16652899999999998           
         H7        1.0000    0.51960   0.50630   0.17380   Biso      1.000     H          0.180197  
         H8        1.0000    0.84150   0.75320   0.15260   Biso      1.000     H          0.186373  
         H9        1.0000    0.85730   0.86110   0.10260   Biso      1.000     H          0.176504  
         H10       1.0000    0.97160   0.81840   0.16180   Biso      1.000     H          0.163268  
         H11       1.0000    0.85820   0.51520   0.89530   Biso      1.000     H          0.14893900000000002           
         H12       1.0000    0.64240   0.50050   0.67740   Biso      1.000     H          0.17089400000000002           
         H13       1.0000    0.61620   0.90920   0.79750   Biso      1.000     H          0.180874  
         H14       1.0000    0.50900   0.81820   0.78920   Biso      1.000     H          0.178645  
         H15       1.0000    0.56690   0.86320   0.71270   Biso      1.000     H          0.172176  
         H16       1.0000    0.03570   0.01200   0.10590   Biso      1.000     H          0.179267  
         H17       1.0000    0.35760   0.49950   0.32260   Biso      1.000     H          0.17089400000000002           
         H18       1.0000    0.38270   0.61490   0.36370   Biso      1.000     H          0.17082999999999998           
         H19       1.0000    0.17430   0.30400   0.58350   Biso      1.000     H          0.15498699999999999           
         H20       1.0000    0.04320   0.36740   0.57400   Biso      1.000     H          0.148946  
         H21       1.0000    0.12720   0.00490   0.35530   Biso      1.000     H          0.168238  
         H22       1.0000    0.07250   0.09390   0.29320   Biso      1.000     H          0.16652899999999998           
         H23       1.0000    0.98040   0.00630   0.32620   Biso      1.000     H          0.180197  
         H24       1.0000    0.65850   0.25320   0.34740   Biso      1.000     H          0.186373  
         H25       1.0000    0.64270   0.36110   0.39740   Biso      1.000     H          0.176504  
         H26       1.0000    0.52840   0.31840   0.33820   Biso      1.000     H          0.163268  
         H27       1.0000    0.64180   0.01520   0.60470   Biso      1.000     H          0.14893900000000002           
         H28       1.0000    0.52040   0.05550   0.64420   Biso      1.000     H          0.16558699999999998           
         H29       1.0000    0.88380   0.40920   0.70250   Biso      1.000     H          0.180874  
         H30       1.0000    0.99100   0.31820   0.71080   Biso      1.000     H          0.178645  
         H31       1.0000    0.93310   0.36320   0.78730   Biso      1.000     H          0.172176  
         H32       1.0000    0.46430   0.51200   0.39410   Biso      1.000     H          0.179267  
         H33       1.0000    0.14240   0.99950   0.17740   Biso      1.000     H          0.17089400000000002           
         H34       1.0000    0.97960   0.55550   0.85580   Biso      1.000     H          0.16558699999999998           
         H35       1.0000    0.02040   0.44450   0.14420   Biso      1.000     H          0.16558699999999998           
         H36       1.0000    0.49100   0.18180   0.21080   Biso      1.000     H          0.178645  
         H37       1.0000    0.38380   0.09080   0.20250   Biso      1.000     H          0.180874  
         H38       1.0000    0.06690   0.63680   0.21270   Biso      1.000     H          0.172176  
         H39       1.0000    0.14180   0.48480   0.10470   Biso      1.000     H          0.14893900000000002           
         H40       1.0000    0.02840   0.18160   0.83820   Biso      1.000     H          0.163268  
         H41       1.0000    0.14270   0.13890   0.89740   Biso      1.000     H          0.176504  
         H42       1.0000    0.15850   0.24680   0.84740   Biso      1.000     H          0.186373  
         H43       1.0000    0.48040   0.49370   0.82620   Biso      1.000     H          0.180197  
         H44       1.0000    0.57250   0.40610   0.79320   Biso      1.000     H          0.16652899999999998           
         H45       1.0000    0.62720   0.49510   0.85530   Biso      1.000     H          0.168238  
         H46       1.0000    0.67430   0.19600   0.08350   Biso      1.000     H          0.15498699999999999           
         H47       1.0000    0.88270   0.88510   0.86370   Biso      1.000     H          0.17082999999999998           
         H48       1.0000    0.96430   0.98800   0.89410   Biso      1.000     H          0.179267  
         H49       1.0000    0.85760   0.00050   0.82260   Biso      1.000     H          0.17089400000000002           
         H50       1.0000    0.54320   0.13260   0.07400   Biso      1.000     H          0.148946  
         H51       1.0000    0.47960   0.94450   0.35580   Biso      1.000     H          0.165588  
         H52       1.0000    0.00900   0.68180   0.28920   Biso      1.000     H          0.178645  
         H53       1.0000    0.11620   0.59080   0.29750   Biso      1.000     H          0.180874  
         H54       1.0000    0.53570   0.48800   0.60590   Biso      1.000     H          0.179267  
         H55       1.0000    0.35820   0.98480   0.39530   Biso      1.000     H          0.14893900000000002           
         H56       1.0000    0.47160   0.68160   0.66180   Biso      1.000     H          0.163268  
         H57       1.0000    0.34150   0.74680   0.65260   Biso      1.000     H          0.186373  
         H58       1.0000    0.35730   0.63890   0.60260   Biso      1.000     H          0.176504  
         H59       1.0000    0.92750   0.90610   0.70680   Biso      1.000     H          0.16652899999999998           
         H60       1.0000    0.87280   0.99510   0.64470   Biso      1.000     H          0.168238  
         H61       1.0000    0.95680   0.63260   0.42600   Biso      1.000     H          0.148946  
         H62       1.0000    0.82570   0.69600   0.41650   Biso      1.000     H          0.15498699999999999           
         H63       1.0000    0.61730   0.38510   0.63630   Biso      1.000     H          0.17082999999999998           
         H64       1.0000    0.01960   0.99370   0.67380   Biso      1.000     H          0.180197  
         N1        1.0000    0.74475   0.59022   0.55065   Biso      1.000     N          -0.44397600000000004          
         N2        1.0000    0.56541   0.79903   0.55525   Biso      1.000     N          -0.297356           
         N3        1.0000    0.77567   0.41577   0.53336   Biso      1.000     N          -0.292159           
         N4        1.0000    0.85109   0.47008   0.48414   Biso      1.000     N          -0.296788           
         N5        1.0000    0.05801   0.79223   0.50553   Biso      1.000     N          -0.264251           
         N6        1.0000    0.73115   0.71583   0.84494   Biso      1.000     N          -0.455135           
         N7        1.0000    0.88321   0.79953   0.56428   Biso      1.000     N          -0.432762           
         N8        1.0000    0.74036   0.71758   0.71716   Biso      1.000     N          -0.287436           
         N9        1.0000    0.83123   0.64441   0.74826   Biso      1.000     N          -0.30747199999999997          
         N10       1.0000    0.56849   0.85881   0.48654   Biso      1.000     N          -0.30403800000000003          
         N11       1.0000    0.07450   0.87308   0.56223   Biso      1.000     N          -0.318664           
         N12       1.0000    0.37077   0.80692   0.49965   Biso      1.000     N          -0.43345200000000006          
         N13       1.0000    0.44199   0.29223   0.99447   Biso      1.000     N          -0.264251           
         N14       1.0000    0.33123   0.85559   0.24826   Biso      1.000     N          -0.30747399999999997          
         N15       1.0000    0.24036   0.78242   0.21716   Biso      1.000     N          -0.287434           
         N16       1.0000    0.61679   0.29953   0.93572   Biso      1.000     N          -0.432762           
         N17       1.0000    0.42550   0.37308   0.93777   Biso      1.000     N          -0.318664           
         N18       1.0000    0.26885   0.28417   0.15506   Biso      1.000     N          -0.455135           
         N19       1.0000    0.12923   0.30692   0.00035   Biso      1.000     N          -0.43345200000000006          
         N20       1.0000    0.93151   0.35881   0.01346   Biso      1.000     N          -0.304041           
         N21       1.0000    0.93459   0.29903   0.94475   Biso      1.000     N          -0.297352           
         N22       1.0000    0.72433   0.91577   0.96664   Biso      1.000     N          -0.292158           
         N23       1.0000    0.64891   0.97008   0.01586   Biso      1.000     N          -0.296788           
         N24       1.0000    0.75525   0.09022   0.94935   Biso      1.000     N          -0.44397600000000004          
         N25       1.0000    0.87077   0.69308   0.99965   Biso      1.000     N          -0.43345200000000006          
         N26       1.0000    0.23115   0.78417   0.34494   Biso      1.000     N          -0.455135           
         N27       1.0000    0.06849   0.64119   0.98654   Biso      1.000     N          -0.304041           
         N28       1.0000    0.25964   0.28242   0.28284   Biso      1.000     N          -0.287436           
         N29       1.0000    0.27567   0.08423   0.03336   Biso      1.000     N          -0.292159           
         N30       1.0000    0.16877   0.35559   0.25174   Biso      1.000     N          -0.307471           
         N31       1.0000    0.11679   0.20047   0.43572   Biso      1.000     N          -0.432762           
         N32       1.0000    0.92550   0.12692   0.43777   Biso      1.000     N          -0.31866700000000003          
         N33       1.0000    0.94199   0.20777   0.49447   Biso      1.000     N          -0.26424899999999996          
         N34       1.0000    0.25525   0.40978   0.44935   Biso      1.000     N          -0.44397600000000004          
         N35       1.0000    0.06541   0.70097   0.05525   Biso      1.000     N          -0.29735300000000003          
         N36       1.0000    0.22433   0.58423   0.46664   Biso      1.000     N          -0.292159           
         N37       1.0000    0.43459   0.20097   0.44475   Biso      1.000     N          -0.297356           
         N38       1.0000    0.43151   0.14119   0.51346   Biso      1.000     N          -0.30403800000000003          
         N39       1.0000    0.14891   0.52992   0.51586   Biso      1.000     N          -0.296788           
         N40       1.0000    0.76885   0.21583   0.65506   Biso      1.000     N          -0.455135           
         N41       1.0000    0.66877   0.14441   0.75174   Biso      1.000     N          -0.30747399999999997          
         N42       1.0000    0.75964   0.21758   0.78284   Biso      1.000     N          -0.287433           
         N43       1.0000    0.38321   0.70047   0.06428   Biso      1.000     N          -0.432762           
         N44       1.0000    0.57450   0.62692   0.06223   Biso      1.000     N          -0.31866700000000003          
         N45       1.0000    0.55801   0.70777   0.00553   Biso      1.000     N          -0.264248           
         N46       1.0000    0.24475   0.90978   0.05065   Biso      1.000     N          -0.44397600000000004          
         N47       1.0000    0.35109   0.02992   0.98414   Biso      1.000     N          -0.296788           
         N48       1.0000    0.62923   0.19308   0.50035   Biso      1.000     N          -0.43345200000000006          
         Zn1       1.0000    0.79308   0.25501   0.54341   Biso      1.000     Zn          0.675257  
         Zn2       1.0000    0.22690   0.76341   0.10091   Biso      1.000     Zn          0.672795  
         Zn3       1.0000    0.70692   0.75501   0.95659   Biso      1.000     Zn          0.675257  
         Zn4       1.0000    0.29308   0.24499   0.04341   Biso      1.000     Zn          0.675257  
         Zn5       1.0000    0.20692   0.74499   0.45659   Biso      1.000     Zn          0.675257  
         Zn6       1.0000    0.77310   0.23659   0.89909   Biso      1.000     Zn          0.672795  
         Zn7       1.0000    0.72690   0.73659   0.60091   Biso      1.000     Zn          0.672796  
         Zn8       1.0000    0.27310   0.26341   0.39909   Biso      1.000     Zn          0.672796 