
##########################################################################
#               Crystallographic Information Format file
#               Produced by PyCifRW module
#
#  This is a CIF file.  CIF has been adopted by the International
#  Union of Crystallography as the standard for data archiving and
#  transmission.
#
#  For information on this file format, follow the CIF links at
#  http://www.iucr.org
##########################################################################

data_image0

_cell_length_a                          10.877
_cell_length_b                          12.829
_cell_length_c                          16.881
_cell_angle_alpha                       90
_cell_angle_beta                        94.445
_cell_angle_gamma                       90
_symmetry_space_group_name_H-M          'P 1'
_symmetry_int_tables_number             1
loop_
  _symmetry_equiv_pos_as_xyz
         'x, y, z' 
loop_
  _atom_site_label
  _atom_site_occupancy
  _atom_site_fract_x
  _atom_site_fract_y
  _atom_site_fract_z
  _atom_site_thermal_displace_type
  _atom_site_B_iso_or_equiv
  _atom_site_type_symbol
  _atom_site_charge
         C1        1.0000    0.68160   0.75340   0.77230   Biso      1.000     C          0.391494  
         C2        1.0000    0.13250   0.03740   0.13230   Biso      1.000     C          -0.547067           
         C3        1.0000    0.22420   0.01290   0.07320   Biso      1.000     C          0.396706  
         C4        1.0000    0.33650   0.93380   0.99580   Biso      1.000     C          0.354794  
         C5        1.0000    0.39650   0.84760   0.95250   Biso      1.000     C          -0.37296999999999997          
         C6        1.0000    0.44340   0.75880   0.00400   Biso      1.000     C          0.361299  
         C7        1.0000    0.44980   0.62990   0.08320   Biso      1.000     C          0.401437  
         C8        1.0000    0.41370   0.55160   0.14180   Biso      1.000     C          -0.5401   
         C9        1.0000    0.90720   0.81750   0.11870   Biso      1.000     C          -0.550501           
         C10       1.0000    0.94900   0.74880   0.05480   Biso      1.000     C          0.398332  
         C11       1.0000    0.94820   0.65150   0.95240   Biso      1.000     C          0.35331399999999996           
         C12       1.0000    0.90250   0.58980   0.88120   Biso      1.000     C          -0.36648200000000003          
         C13       1.0000    0.08240   0.66630   0.26300   Biso      1.000     C          -0.547786           
         C14       1.0000    0.82010   0.65100   0.82200   Biso      1.000     C          0.339237  
         C15       1.0000    0.36750   0.53740   0.36770   Biso      1.000     C          -0.547067           
         C16       1.0000    0.27580   0.51290   0.42680   Biso      1.000     C          0.396706  
         C17       1.0000    0.16350   0.43380   0.50420   Biso      1.000     C          0.354794  
         C18       1.0000    0.10350   0.34760   0.54750   Biso      1.000     C          -0.37296999999999997          
         C19       1.0000    0.05660   0.25880   0.49600   Biso      1.000     C          0.361299  
         C20       1.0000    0.05020   0.12990   0.41680   Biso      1.000     C          0.401437  
         C21       1.0000    0.08630   0.05160   0.35820   Biso      1.000     C          -0.5401   
         C22       1.0000    0.59280   0.31750   0.38130   Biso      1.000     C          -0.550501           
         C23       1.0000    0.55100   0.24880   0.44520   Biso      1.000     C          0.398333  
         C24       1.0000    0.55180   0.15150   0.54760   Biso      1.000     C          0.353313  
         C25       1.0000    0.59750   0.08980   0.61880   Biso      1.000     C          -0.36648200000000003          
         C26       1.0000    0.58240   0.83370   0.76300   Biso      1.000     C          -0.547786           
         C27       1.0000    0.67990   0.15100   0.67800   Biso      1.000     C          0.339237  
         C28       1.0000    0.18160   0.74660   0.27230   Biso      1.000     C          0.391493  
         C29       1.0000    0.40250   0.91020   0.38120   Biso      1.000     C          -0.366481           
         C30       1.0000    0.86750   0.96260   0.86770   Biso      1.000     C          -0.547067           
         C31       1.0000    0.77580   0.98710   0.92680   Biso      1.000     C          0.396706  
         C32       1.0000    0.66350   0.06620   0.00420   Biso      1.000     C          0.354794  
         C33       1.0000    0.60350   0.15240   0.04750   Biso      1.000     C          -0.37296999999999997          
         C34       1.0000    0.55660   0.24120   0.99600   Biso      1.000     C          0.3613    
         C35       1.0000    0.55020   0.37010   0.91680   Biso      1.000     C          0.401437  
         C36       1.0000    0.58630   0.44840   0.85820   Biso      1.000     C          -0.5401   
         C37       1.0000    0.09280   0.18250   0.88130   Biso      1.000     C          -0.550501           
         C38       1.0000    0.05100   0.25120   0.94520   Biso      1.000     C          0.398332  
         C39       1.0000    0.05180   0.34850   0.04760   Biso      1.000     C          0.35331399999999996           
         C40       1.0000    0.09750   0.41020   0.11880   Biso      1.000     C          -0.36648200000000003          
         C41       1.0000    0.32010   0.84900   0.32200   Biso      1.000     C          0.339237  
         C42       1.0000    0.17990   0.34900   0.17800   Biso      1.000     C          0.339237  
         C43       1.0000    0.41760   0.16630   0.23700   Biso      1.000     C          -0.5477850000000001           
         C44       1.0000    0.63250   0.46260   0.63230   Biso      1.000     C          -0.547067           
         C45       1.0000    0.72420   0.48710   0.57320   Biso      1.000     C          0.396706  
         C46       1.0000    0.83650   0.56620   0.49580   Biso      1.000     C          0.354794  
         C47       1.0000    0.89650   0.65240   0.45250   Biso      1.000     C          -0.37296999999999997          
         C48       1.0000    0.94340   0.74120   0.50400   Biso      1.000     C          0.3613    
         C49       1.0000    0.94980   0.87010   0.58320   Biso      1.000     C          0.401437  
         C50       1.0000    0.91370   0.94840   0.64180   Biso      1.000     C          -0.5401   
         C51       1.0000    0.40720   0.68250   0.61870   Biso      1.000     C          -0.550501           
         C52       1.0000    0.44900   0.75120   0.55480   Biso      1.000     C          0.398333  
         C53       1.0000    0.44820   0.84850   0.45240   Biso      1.000     C          0.35331399999999996           
         C54       1.0000    0.31840   0.24660   0.22770   Biso      1.000     C          0.391493  
         C55       1.0000    0.91760   0.33370   0.73700   Biso      1.000     C          -0.547786           
         C56       1.0000    0.81840   0.25340   0.72770   Biso      1.000     C          0.391493  
         H1        1.0000    0.43340   0.14840   0.29330   Biso      1.000     H          0.172699  
         H2        1.0000    0.13010   0.11290   0.14090   Biso      1.000     H          0.170173  
         H3        1.0000    0.33610   0.82010   0.91080   Biso      1.000     H          0.152723  
         H4        1.0000    0.46640   0.87720   0.92560   Biso      1.000     H          0.147851  
         H5        1.0000    0.34410   0.51050   0.11850   Biso      1.000     H          0.168328  
         H6        1.0000    0.38940   0.58740   0.18950   Biso      1.000     H          0.163987  
         H7        1.0000    0.48360   0.50540   0.15620   Biso      1.000     H          0.18118199999999998           
         H8        1.0000    0.84450   0.78110   0.14690   Biso      1.000     H          0.187871  
         H9        1.0000    0.87200   0.88170   0.09510   Biso      1.000     H          0.177215  
         H10       1.0000    0.97770   0.83480   0.15610   Biso      1.000     H          0.164434  
         H11       1.0000    0.85640   0.52860   0.89880   Biso      1.000     H          0.149591  
         H12       1.0000    0.65670   0.49760   0.68270   Biso      1.000     H          0.171214  
         H13       1.0000    0.60850   0.89630   0.79310   Biso      1.000     H          0.181301  
         H14       1.0000    0.50680   0.80610   0.78320   Biso      1.000     H          0.179403  
         H15       1.0000    0.56660   0.85160   0.70670   Biso      1.000     H          0.172699  
         H16       1.0000    0.05070   0.01310   0.11200   Biso      1.000     H          0.17736400000000002           
         H17       1.0000    0.34330   0.50240   0.31730   Biso      1.000     H          0.171214  
         H18       1.0000    0.36990   0.61290   0.35910   Biso      1.000     H          0.170173  
         H19       1.0000    0.16390   0.32010   0.58920   Biso      1.000     H          0.152723  
         H20       1.0000    0.03360   0.37720   0.57440   Biso      1.000     H          0.147851  
         H21       1.0000    0.15590   0.01050   0.38150   Biso      1.000     H          0.168328  
         H22       1.0000    0.11060   0.08740   0.31050   Biso      1.000     H          0.163987  
         H23       1.0000    0.01640   0.00540   0.34380   Biso      1.000     H          0.18118199999999998           
         H24       1.0000    0.65550   0.28110   0.35310   Biso      1.000     H          0.187871  
         H25       1.0000    0.62800   0.38170   0.40490   Biso      1.000     H          0.177215  
         H26       1.0000    0.52230   0.33480   0.34390   Biso      1.000     H          0.164434  
         H27       1.0000    0.64360   0.02860   0.60120   Biso      1.000     H          0.149591  
         H28       1.0000    0.52570   0.06360   0.64560   Biso      1.000     H          0.165963  
         H29       1.0000    0.89150   0.39630   0.70690   Biso      1.000     H          0.181301  
         H30       1.0000    0.99320   0.30610   0.71680   Biso      1.000     H          0.179403  
         H31       1.0000    0.93340   0.35160   0.79330   Biso      1.000     H          0.172699  
         H32       1.0000    0.44930   0.51310   0.38800   Biso      1.000     H          0.17736400000000002           
         H33       1.0000    0.15670   0.00240   0.18270   Biso      1.000     H          0.171214  
         H34       1.0000    0.97430   0.56360   0.85440   Biso      1.000     H          0.165963  
         H35       1.0000    0.02570   0.43640   0.14560   Biso      1.000     H          0.165963  
         H36       1.0000    0.49320   0.19390   0.21680   Biso      1.000     H          0.179403  
         H37       1.0000    0.39150   0.10370   0.20690   Biso      1.000     H          0.181301  
         H38       1.0000    0.06660   0.64840   0.20670   Biso      1.000     H          0.172699  
         H39       1.0000    0.14360   0.47140   0.10120   Biso      1.000     H          0.149591  
         H40       1.0000    0.02230   0.16520   0.84390   Biso      1.000     H          0.164434  
         H41       1.0000    0.12800   0.11830   0.90490   Biso      1.000     H          0.177215  
         H42       1.0000    0.15550   0.21890   0.85310   Biso      1.000     H          0.187871  
         H43       1.0000    0.51640   0.49460   0.84380   Biso      1.000     H          0.18118199999999998           
         H44       1.0000    0.61060   0.41260   0.81050   Biso      1.000     H          0.163987  
         H45       1.0000    0.65590   0.48950   0.88150   Biso      1.000     H          0.168328  
         H46       1.0000    0.66390   0.17990   0.08920   Biso      1.000     H          0.152723  
         H47       1.0000    0.86990   0.88710   0.85910   Biso      1.000     H          0.170173  
         H48       1.0000    0.94930   0.98690   0.88800   Biso      1.000     H          0.17736400000000002           
         H49       1.0000    0.84330   0.99760   0.81730   Biso      1.000     H          0.171214  
         H50       1.0000    0.53360   0.12280   0.07440   Biso      1.000     H          0.147851  
         H51       1.0000    0.47430   0.93640   0.35440   Biso      1.000     H          0.165963  
         H52       1.0000    0.00680   0.69390   0.28320   Biso      1.000     H          0.179403  
         H53       1.0000    0.10850   0.60370   0.29310   Biso      1.000     H          0.181301  
         H54       1.0000    0.55070   0.48690   0.61200   Biso      1.000     H          0.17736400000000002           
         H55       1.0000    0.35640   0.97140   0.39880   Biso      1.000     H          0.149591  
         H56       1.0000    0.47770   0.66520   0.65610   Biso      1.000     H          0.164434  
         H57       1.0000    0.34450   0.71890   0.64690   Biso      1.000     H          0.187871  
         H58       1.0000    0.37200   0.61830   0.59510   Biso      1.000     H          0.177215  
         H59       1.0000    0.88940   0.91260   0.68950   Biso      1.000     H          0.163987  
         H60       1.0000    0.84410   0.98950   0.61850   Biso      1.000     H          0.168328  
         H61       1.0000    0.96640   0.62280   0.42560   Biso      1.000     H          0.147851  
         H62       1.0000    0.83610   0.67990   0.41080   Biso      1.000     H          0.152723  
         H63       1.0000    0.63010   0.38710   0.64090   Biso      1.000     H          0.170173  
         H64       1.0000    0.98360   0.99460   0.65620   Biso      1.000     H          0.18118199999999998           
         N1        1.0000    0.75300   0.58390   0.55044   Biso      1.000     N          -0.44692200000000004          
         N2        1.0000    0.56410   0.78220   0.54800   Biso      1.000     N          -0.28831799999999996          
         N3        1.0000    0.78510   0.41550   0.53550   Biso      1.000     N          -0.290434           
         N4        1.0000    0.85820   0.46740   0.48426   Biso      1.000     N          -0.296589           
         N5        1.0000    0.05280   0.78520   0.50130   Biso      1.000     N          -0.263413           
         N6        1.0000    0.72920   0.71650   0.84258   Biso      1.000     N          -0.451981           
         N7        1.0000    0.87580   0.79090   0.55540   Biso      1.000     N          -0.430816           
         N8        1.0000    0.73830   0.71280   0.71280   Biso      1.000     N          -0.283729           
         N9        1.0000    0.82860   0.64480   0.74500   Biso      1.000     N          -0.305347           
         N10       1.0000    0.56450   0.84570   0.48100   Biso      1.000     N          -0.309881           
         N11       1.0000    0.05880   0.86960   0.55250   Biso      1.000     N          -0.323497           
         N12       1.0000    0.37240   0.79070   0.49575   Biso      1.000     N          -0.43863199999999997          
         N13       1.0000    0.44720   0.28520   0.99870   Biso      1.000     N          -0.263413           
         N14       1.0000    0.32860   0.85520   0.24500   Biso      1.000     N          -0.30535  
         N15       1.0000    0.23830   0.78720   0.21280   Biso      1.000     N          -0.28372600000000003          
         N16       1.0000    0.62420   0.29090   0.94460   Biso      1.000     N          -0.430816           
         N17       1.0000    0.44120   0.36960   0.94750   Biso      1.000     N          -0.323497           
         N18       1.0000    0.27080   0.28350   0.15742   Biso      1.000     N          -0.451981           
         N19       1.0000    0.12760   0.29070   0.00425   Biso      1.000     N          -0.43863199999999997          
         N20       1.0000    0.93550   0.34570   0.01900   Biso      1.000     N          -0.309882           
         N21       1.0000    0.93590   0.28220   0.95200   Biso      1.000     N          -0.28831599999999996          
         N22       1.0000    0.71490   0.91550   0.96450   Biso      1.000     N          -0.290434           
         N23       1.0000    0.64180   0.96740   0.01574   Biso      1.000     N          -0.296589           
         N24       1.0000    0.74700   0.08390   0.94956   Biso      1.000     N          -0.44692200000000004          
         N25       1.0000    0.87240   0.70930   0.99575   Biso      1.000     N          -0.43863199999999997          
         N26       1.0000    0.22920   0.78350   0.34258   Biso      1.000     N          -0.451981           
         N27       1.0000    0.06450   0.65430   0.98100   Biso      1.000     N          -0.309883           
         N28       1.0000    0.26170   0.28720   0.28720   Biso      1.000     N          -0.28373000000000004          
         N29       1.0000    0.28510   0.08450   0.03550   Biso      1.000     N          -0.290434           
         N30       1.0000    0.17140   0.35520   0.25500   Biso      1.000     N          -0.305347           
         N31       1.0000    0.12420   0.20910   0.44460   Biso      1.000     N          -0.430816           
         N32       1.0000    0.94120   0.13040   0.44750   Biso      1.000     N          -0.323499           
         N33       1.0000    0.94720   0.21480   0.49870   Biso      1.000     N          -0.26341  
         N34       1.0000    0.24700   0.41610   0.44956   Biso      1.000     N          -0.44692200000000004          
         N35       1.0000    0.06410   0.71780   0.04800   Biso      1.000     N          -0.28831599999999996          
         N36       1.0000    0.21490   0.58450   0.46450   Biso      1.000     N          -0.290434           
         N37       1.0000    0.43590   0.21780   0.45200   Biso      1.000     N          -0.28831799999999996          
         N38       1.0000    0.43550   0.15430   0.51900   Biso      1.000     N          -0.309881           
         N39       1.0000    0.14180   0.53260   0.51574   Biso      1.000     N          -0.296589           
         N40       1.0000    0.77080   0.21650   0.65742   Biso      1.000     N          -0.451981           
         N41       1.0000    0.67140   0.14480   0.75500   Biso      1.000     N          -0.30535  
         N42       1.0000    0.76170   0.21280   0.78720   Biso      1.000     N          -0.28372600000000003          
         N43       1.0000    0.37580   0.70910   0.05540   Biso      1.000     N          -0.430816           
         N44       1.0000    0.55880   0.63040   0.05250   Biso      1.000     N          -0.323499           
         N45       1.0000    0.55280   0.71480   0.00130   Biso      1.000     N          -0.26341  
         N46       1.0000    0.25300   0.91610   0.05044   Biso      1.000     N          -0.44692200000000004          
         N47       1.0000    0.35820   0.03260   0.98426   Biso      1.000     N          -0.296589           
         N48       1.0000    0.62760   0.20930   0.50425   Biso      1.000     N          -0.43863199999999997          
         Zn1       1.0000    0.79473   0.26017   0.54491   Biso      1.000     Zn          0.675524  
         Zn2       1.0000    0.22393   0.77314   0.09466   Biso      1.000     Zn          0.671029  
         Zn3       1.0000    0.70527   0.76017   0.95509   Biso      1.000     Zn          0.675524  
         Zn4       1.0000    0.29473   0.23983   0.04491   Biso      1.000     Zn          0.675524  
         Zn5       1.0000    0.20527   0.73983   0.45509   Biso      1.000     Zn          0.675524  
         Zn6       1.0000    0.77607   0.22686   0.90534   Biso      1.000     Zn          0.671028  
         Zn7       1.0000    0.72393   0.72686   0.59466   Biso      1.000     Zn          0.671029  
         Zn8       1.0000    0.27607   0.27314   0.40534   Biso      1.000     Zn          0.671029 