
##########################################################################
#               Crystallographic Information Format file
#               Produced by PyCifRW module
#
#  This is a CIF file.  CIF has been adopted by the International
#  Union of Crystallography as the standard for data archiving and
#  transmission.
#
#  For information on this file format, follow the CIF links at
#  http://www.iucr.org
##########################################################################

data_image0

_cell_length_a                          16.6004
_cell_length_b                          16.6004
_cell_length_c                          16.6004
_cell_angle_alpha                       104.573
_cell_angle_beta                        104.573
_cell_angle_gamma                       119.786
_symmetry_space_group_name_H-M          'P 1'
_symmetry_int_tables_number             1
loop_
  _symmetry_equiv_pos_as_xyz
         'x, y, z' 
loop_
  _atom_site_label
  _atom_site_occupancy
  _atom_site_fract_x
  _atom_site_fract_y
  _atom_site_fract_z
  _atom_site_thermal_displace_type
  _atom_site_B_iso_or_equiv
  _atom_site_type_symbol
  _atom_site_charge
         C1        1.0000    0.82000   0.47380   0.87040   Biso      1.000     C          -0.03872  
         C2        1.0000    0.42650   0.35770   0.55220   Biso      1.000     C          0.628001  
         C3        1.0000    0.59960   0.30140   0.53320   Biso      1.000     C          0.648446  
         C4        1.0000    0.51030   0.25610   0.55540   Biso      1.000     C          0.015215  
         C5        1.0000    0.44370   0.28210   0.56460   Biso      1.000     C          -0.009729           
         C6        1.0000    0.40920   0.15690   0.59810   Biso      1.000     C          0.232612  
         C7        1.0000    0.46900   0.41570   0.83670   Biso      1.000     C          0.642677  
         C8        1.0000    0.59850   0.36720   0.99970   Biso      1.000     C          0.671991  
         C9        1.0000    0.50250   0.30280   0.91010   Biso      1.000     C          -0.007388           
         C10       1.0000    0.44960   0.32000   0.84620   Biso      1.000     C          -0.038721           
         C11       1.0000    0.36500   0.15850   0.79930   Biso      1.000     C          0.217652  
         C12       1.0000    0.14230   0.19450   0.06880   Biso      1.000     C          0.628011  
         C13       1.0000    0.85920   0.56570   0.70070   Biso      1.000     C          0.217663  
         C14       1.0000    0.19860   0.23180   0.29820   Biso      1.000     C          0.648474  
         C15       1.0000    0.21790   0.28250   0.16160   Biso      1.000     C          -0.009773           
         C16       1.0000    0.34310   0.44120   0.25230   Biso      1.000     C          0.232655  
         C17       1.0000    0.08430   0.42100   0.05330   Biso      1.000     C          0.642686  
         C18       1.0000    0.13280   0.63250   0.23130   Biso      1.000     C          0.671963  
         C19       1.0000    0.19720   0.60730   0.19970   Biso      1.000     C          -0.007413           
         C20       1.0000    0.18000   0.52620   0.12960   Biso      1.000     C          -0.038718           
         C21       1.0000    0.34150   0.64080   0.20650   Biso      1.000     C          0.217658  
         C22       1.0000    0.62570   0.07350   0.43120   Biso      1.000     C          0.627998  
         C23       1.0000    0.43360   0.90040   0.20180   Biso      1.000     C          0.648489  
         C24       1.0000    0.54510   0.98970   0.24580   Biso      1.000     C          0.015222  
         C25       1.0000    0.62090   0.05630   0.33840   Biso      1.000     C          -0.009732           
         C26       1.0000    0.24390   0.29930   0.25420   Biso      1.000     C          0.01524   
         C27       1.0000    0.68890   0.09080   0.24770   Biso      1.000     C          0.232584  
         C28       1.0000    0.89270   0.59240   0.58990   Biso      1.000     C          -0.007381           
         C29       1.0000    0.07900   0.63230   0.66330   Biso      1.000     C          0.642719  
         C30       1.0000    0.85770   0.80550   0.93120   Biso      1.000     C          0.628011  
         C31       1.0000    0.80140   0.76820   0.70180   Biso      1.000     C          0.648474  
         C32       1.0000    0.75610   0.70070   0.74580   Biso      1.000     C          0.01524   
         C33       1.0000    0.78210   0.71750   0.83840   Biso      1.000     C          -0.009773           
         C34       1.0000    0.65690   0.55880   0.74770   Biso      1.000     C          0.232655  
         C35       1.0000    0.91570   0.57900   0.94670   Biso      1.000     C          0.642686  
         C36       1.0000    0.86720   0.36750   0.76870   Biso      1.000     C          0.671962  
         C37       1.0000    0.80280   0.39270   0.80030   Biso      1.000     C          -0.007411           
         C38       1.0000    0.65850   0.35920   0.79350   Biso      1.000     C          0.217658  
         C39       1.0000    0.37430   0.92650   0.56880   Biso      1.000     C          0.627998  
         C40       1.0000    0.56640   0.09960   0.79820   Biso      1.000     C          0.648489  
         C41       1.0000    0.86750   0.59880   0.50030   Biso      1.000     C          0.671966  
         C42       1.0000    0.45490   0.01030   0.75420   Biso      1.000     C          0.015222  
         C43       1.0000    0.31110   0.90920   0.75230   Biso      1.000     C          0.232584  
         C44       1.0000    0.13230   0.96900   0.55330   Biso      1.000     C          0.642694  
         C45       1.0000    0.09880   0.09850   0.73130   Biso      1.000     C          0.671995  
         C46       1.0000    0.09240   0.00250   0.69970   Biso      1.000     C          -0.007386           
         C47       1.0000    0.10340   0.94960   0.62960   Biso      1.000     C          -0.038719           
         C48       1.0000    0.06570   0.86500   0.70650   Biso      1.000     C          0.217642  
         C49       1.0000    0.30550   0.87430   0.94780   Biso      1.000     C          0.62798   
         C50       1.0000    0.26820   0.06640   0.96680   Biso      1.000     C          0.648454  
         C51       1.0000    0.20070   0.95490   0.94460   Biso      1.000     C          0.015198  
         C52       1.0000    0.21750   0.87910   0.93540   Biso      1.000     C          -0.009681           
         C53       1.0000    0.05880   0.81110   0.90190   Biso      1.000     C          0.232596  
         C54       1.0000    0.37910   0.94370   0.66160   Biso      1.000     C          -0.009733           
         C55       1.0000    0.86770   0.03100   0.44670   Biso      1.000     C          0.642694  
         C56       1.0000    0.97380   0.60340   0.65380   Biso      1.000     C          -0.038728           
         C57       1.0000    0.90760   0.99750   0.30030   Biso      1.000     C          -0.007386           
         C58       1.0000    0.90120   0.90150   0.26870   Biso      1.000     C          0.671995  
         C59       1.0000    0.63500   0.84150   0.20070   Biso      1.000     C          0.217652  
         C60       1.0000    0.55040   0.68000   0.15380   Biso      1.000     C          -0.038723           
         C61       1.0000    0.49750   0.69720   0.08990   Biso      1.000     C          -0.007385           
         C62       1.0000    0.40150   0.63280   0.00030   Biso      1.000     C          0.67199   
         C63       1.0000    0.53100   0.58430   0.16330   Biso      1.000     C          0.642677  
         C64       1.0000    0.59080   0.84310   0.40190   Biso      1.000     C          0.232612  
         C65       1.0000    0.55630   0.71790   0.43540   Biso      1.000     C          -0.009729           
         C66       1.0000    0.40040   0.69860   0.46680   Biso      1.000     C          0.648446  
         C67       1.0000    0.57350   0.64230   0.44780   Biso      1.000     C          0.628     
         C68       1.0000    0.14080   0.43430   0.29930   Biso      1.000     C          0.217662  
         C69       1.0000    0.48970   0.74390   0.44460   Biso      1.000     C          0.015215  
         C70       1.0000    0.10730   0.40760   0.41010   Biso      1.000     C          -0.007381           
         C71       1.0000    0.89660   0.05040   0.37040   Biso      1.000     C          -0.038719           
         C72       1.0000    0.93430   0.13500   0.29350   Biso      1.000     C          0.217642  
         C73       1.0000    0.02620   0.39660   0.34620   Biso      1.000     C          -0.038727           
         C74       1.0000    0.73180   0.93360   0.03320   Biso      1.000     C          0.648454  
         C75       1.0000    0.79930   0.04510   0.05540   Biso      1.000     C          0.015198  
         C76       1.0000    0.69450   0.12570   0.05220   Biso      1.000     C          0.62798   
         C77       1.0000    0.94120   0.18890   0.09810   Biso      1.000     C          0.232596  
         C78       1.0000    0.92100   0.36770   0.33670   Biso      1.000     C          0.642718  
         C79       1.0000    0.13250   0.40120   0.49970   Biso      1.000     C          0.671966  
         C80       1.0000    0.78250   0.12090   0.06460   Biso      1.000     C          -0.009681           
         H1        1.0000    0.41250   0.67630   0.22580   Biso      1.000     H          0.070978  
         H2        1.0000    0.68670   0.91250   0.23620   Biso      1.000     H          0.070983  
         H3        1.0000    0.62300   0.89610   0.38530   Biso      1.000     H          0.070701  
         H4        1.0000    0.17630   0.45050   0.26380   Biso      1.000     H          0.07097   
         H5        1.0000    0.01080   0.23770   0.11470   Biso      1.000     H          0.070723  
         H6        1.0000    0.73770   0.12300   0.22690   Biso      1.000     H          0.070718  
         H7        1.0000    0.39610   0.51080   0.27310   Biso      1.000     H          0.070702  
         H8        1.0000    0.95050   0.18670   0.27420   Biso      1.000     H          0.070996  
         H9        1.0000    0.37700   0.10390   0.61470   Biso      1.000     H          0.070702  
         H10       1.0000    0.31330   0.08750   0.76380   Biso      1.000     H          0.070983  
         H11       1.0000    0.58750   0.32370   0.77420   Biso      1.000     H          0.070978  
         H12       1.0000    0.26230   0.87700   0.77310   Biso      1.000     H          0.070718  
         H13       1.0000    0.04950   0.81330   0.72580   Biso      1.000     H          0.070996  
         H14       1.0000    0.60390   0.48920   0.72690   Biso      1.000     H          0.070702  
         H15       1.0000    0.98920   0.76230   0.88530   Biso      1.000     H          0.070723  
         H16       1.0000    0.82370   0.54950   0.73620   Biso      1.000     H          0.07097   
         N1        1.0000    0.27380   0.54840   0.13440   Biso      1.000     N          -0.471604           
         N2        1.0000    0.58980   0.01120   0.18780   Biso      1.000     N          -0.455052           
         N3        1.0000    0.71440   0.12130   0.33690   Biso      1.000     N          -0.461511           
         N4        1.0000    0.55310   0.80390   0.12240   Biso      1.000     N          -0.43749  
         N5        1.0000    0.93070   0.05310   0.24920   Biso      1.000     N          -0.437498           
         N6        1.0000    0.90200   0.08980   0.07860   Biso      1.000     N          -0.455041           
         N7        1.0000    0.87750   0.21440   0.09310   Biso      1.000     N          -0.461574           
         N8        1.0000    0.04840   0.41400   0.27460   Biso      1.000     N          -0.471595           
         N9        1.0000    0.18150   0.43070   0.37760   Biso      1.000     N          -0.437473           
         N10       1.0000    0.51120   0.82340   0.42140   Biso      1.000     N          -0.455044           
         N11       1.0000    0.62130   0.78440   0.40690   Biso      1.000     N          -0.461557           
         N12       1.0000    0.63940   0.77380   0.22540   Biso      1.000     N          -0.471587           
         N13       1.0000    0.30390   0.68150   0.25080   Biso      1.000     N          -0.437459           
         N14       1.0000    0.91400   0.13940   0.36560   Biso      1.000     N          -0.471585           
         N15       1.0000    0.48880   0.17660   0.57860   Biso      1.000     N          -0.455044           
         N16       1.0000    0.36060   0.22620   0.77460   Biso      1.000     N          -0.471587           
         N17       1.0000    0.28440   0.37750   0.16310   Biso      1.000     N          -0.461555           
         N18       1.0000    0.67660   0.59800   0.68780   Biso      1.000     N          -0.455072           
         N19       1.0000    0.71560   0.62250   0.83690   Biso      1.000     N          -0.461555           
         N20       1.0000    0.72620   0.45160   0.86560   Biso      1.000     N          -0.471604           
         N21       1.0000    0.69610   0.31850   0.74920   Biso      1.000     N          -0.437459           
         N22       1.0000    0.41020   0.98880   0.81220   Biso      1.000     N          -0.455052           
         N23       1.0000    0.44690   0.19610   0.87760   Biso      1.000     N          -0.43749  
         N24       1.0000    0.28560   0.87870   0.66310   Biso      1.000     N          -0.461511           
         N25       1.0000    0.06930   0.94690   0.75080   Biso      1.000     N          -0.437498           
         N26       1.0000    0.09800   0.91020   0.92140   Biso      1.000     N          -0.455041           
         N27       1.0000    0.12250   0.78560   0.90690   Biso      1.000     N          -0.461574           
         N28       1.0000    0.95160   0.58600   0.72540   Biso      1.000     N          -0.471595           
         N29       1.0000    0.81850   0.56930   0.62240   Biso      1.000     N          -0.437473           
         N30       1.0000    0.37870   0.21560   0.59310   Biso      1.000     N          -0.461557           
         N31       1.0000    0.08600   0.86060   0.63440   Biso      1.000     N          -0.471585           
         N32       1.0000    0.32340   0.40200   0.31220   Biso      1.000     N          -0.455072           
         O1        1.0000    0.08520   0.10080   0.05780   Biso      1.000     O          -0.736057           
         O2        1.0000    0.36030   0.36240   0.57470   Biso      1.000     O          -0.695332           
         O3        1.0000    0.03670   0.56660   0.19890   Biso      1.000     O          -0.713179           
         O4        1.0000    0.99750   0.39230   0.05200   Biso      1.000     O          -0.670258           
         O5        1.0000    0.09780   0.37080   0.99560   Biso      1.000     O          -0.630034           
         O6        1.0000    0.23460   0.27830   0.38470   Biso      1.000     O          -0.622864           
         O7        1.0000    0.13120   0.13540   0.24880   Biso      1.000     O          -0.675137           
         O8        1.0000    0.93340   0.63230   0.47010   Biso      1.000     O          -0.713173           
         O9        1.0000    0.77530   0.56550   0.45640   Biso      1.000     O          -0.656947           
         O10       1.0000    0.13760   0.21230   0.99790   Biso      1.000     O          -0.695329           
         O11       1.0000    0.66220   0.46330   0.02990   Biso      1.000     O          -0.713189           
         O12       1.0000    0.55450   0.50250   0.89480   Biso      1.000     O          -0.670279           
         O13       1.0000    0.39780   0.40220   0.77300   Biso      1.000     O          -0.630024           
         O14       1.0000    0.65010   0.26540   0.54370   Biso      1.000     O          -0.622828           
         O15       1.0000    0.61760   0.36880   0.50420   Biso      1.000     O          -0.675111           
         O16       1.0000    0.47260   0.41480   0.51560   Biso      1.000     O          -0.736048           
         O17       1.0000    0.60910   0.31890   0.04360   Biso      1.000     O          -0.656937           
         O18       1.0000    0.10770   0.65970   0.60520   Biso      1.000     O          -0.670292           
         O19       1.0000    0.86880   0.86460   0.75120   Biso      1.000     O          -0.675137           
         O20       1.0000    0.22170   0.10640   0.95630   Biso      1.000     O          -0.622819           
         O21       1.0000    0.18110   0.72470   0.29020   Biso      1.000     O          -0.656944           
         O22       1.0000    0.28770   0.78560   0.92530   Biso      1.000     O          -0.695346           
         O23       1.0000    0.06550   0.10910   0.79020   Biso      1.000     O          -0.656927           
         O24       1.0000    0.13230   0.16220   0.69890   Biso      1.000     O          -0.7132   
         O25       1.0000    0.15970   0.05450   0.55200   Biso      1.000     O          -0.670294           
         O26       1.0000    0.12480   0.89780   0.49560   Biso      1.000     O          -0.630025           
         O27       1.0000    0.60640   0.15010   0.88470   Biso      1.000     O          -0.622877           
         O28       1.0000    0.61340   0.11760   0.74880   Biso      1.000     O          -0.675125           
         O29       1.0000    0.39920   0.95700   0.98440   Biso      1.000     O          -0.736046           
         O30       1.0000    0.45700   0.97260   0.55780   Biso      1.000     O          -0.736047           
         O31       1.0000    0.28560   0.86030   0.49790   Biso      1.000     O          -0.695355           
         O32       1.0000    0.81890   0.27530   0.70980   Biso      1.000     O          -0.656944           
         O33       1.0000    0.96330   0.43340   0.80110   Biso      1.000     O          -0.713178           
         O34       1.0000    0.00250   0.60770   0.94800   Biso      1.000     O          -0.670258           
         O35       1.0000    0.90220   0.62920   0.00440   Biso      1.000     O          -0.630034           
         O36       1.0000    0.76540   0.72170   0.61530   Biso      1.000     O          -0.622864           
         O37       1.0000    0.36460   0.11340   0.99580   Biso      1.000     O          -0.675134           
         O38       1.0000    0.12920   0.62480   0.72700   Biso      1.000     O          -0.630053           
         O39       1.0000    0.71440   0.13970   0.50210   Biso      1.000     O          -0.695355           
         O40       1.0000    0.86240   0.78770   0.00210   Biso      1.000     O          -0.695329           
         O41       1.0000    0.38660   0.88240   0.25120   Biso      1.000     O          -0.675125           
         O42       1.0000    0.91480   0.89920   0.94220   Biso      1.000     O          -0.736057           
         O43       1.0000    0.39090   0.68110   0.95640   Biso      1.000     O          -0.656937           
         O44       1.0000    0.33780   0.53670   0.97010   Biso      1.000     O          -0.713188           
         O45       1.0000    0.54300   0.02740   0.44220   Biso      1.000     O          -0.736047           
         O46       1.0000    0.60220   0.59780   0.22700   Biso      1.000     O          -0.630024           
         O47       1.0000    0.34990   0.73460   0.45630   Biso      1.000     O          -0.622828           
         O48       1.0000    0.38240   0.63120   0.49580   Biso      1.000     O          -0.675111           
         O49       1.0000    0.52740   0.58520   0.48440   Biso      1.000     O          -0.736048           
         O50       1.0000    0.63970   0.63760   0.42530   Biso      1.000     O          -0.695332           
         O51       1.0000    0.22470   0.43450   0.54360   Biso      1.000     O          -0.656947           
         O52       1.0000    0.06660   0.36770   0.52990   Biso      1.000     O          -0.713173           
         O53       1.0000    0.44550   0.49750   0.10520   Biso      1.000     O          -0.670279           
         O54       1.0000    0.87080   0.37520   0.27300   Biso      1.000     O          -0.630053           
         O55       1.0000    0.89230   0.34030   0.39480   Biso      1.000     O          -0.670292           
         O56       1.0000    0.39360   0.84990   0.11530   Biso      1.000     O          -0.622877           
         O57       1.0000    0.84030   0.94550   0.44800   Biso      1.000     O          -0.670294           
         O58       1.0000    0.86770   0.83780   0.30110   Biso      1.000     O          -0.7132   
         O59       1.0000    0.87520   0.10220   0.50440   Biso      1.000     O          -0.630025           
         O60       1.0000    0.71230   0.21440   0.07470   Biso      1.000     O          -0.695346           
         O61       1.0000    0.60080   0.04300   0.01560   Biso      1.000     O          -0.736046           
         O62       1.0000    0.63540   0.88660   0.00420   Biso      1.000     O          -0.675134           
         O63       1.0000    0.77830   0.89360   0.04370   Biso      1.000     O          -0.622819           
         O64       1.0000    0.93450   0.89090   0.20980   Biso      1.000     O          -0.656927           
         Pr1       1.0000    0.26164   0.40046   0.01654   Biso      1.000     Pr          2.042197  
         Pr2       1.0000    0.48883   0.87084   0.01791   Biso      1.000     Pr          2.040789  
         Pr3       1.0000    0.90046   0.38392   0.13882   Biso      1.000     Pr          2.042218  
         Pr4       1.0000    0.35293   0.47092   0.48209   Biso      1.000     Pr          2.040791  
         Pr5       1.0000    0.88392   0.24510   0.48346   Biso      1.000     Pr          2.042218  
         Pr6       1.0000    0.97092   0.98883   0.11799   Biso      1.000     Pr          2.040801  
         Pr7       1.0000    0.37084   0.85293   0.38201   Biso      1.000     Pr          2.040802  
         Pr8       1.0000    0.11608   0.75490   0.51654   Biso      1.000     Pr          2.042219  
         Pr9       1.0000    0.51117   0.12916   0.98209   Biso      1.000     Pr          2.040789  
         Pr10      1.0000    0.09954   0.61608   0.86118   Biso      1.000     Pr          2.042218  
         Pr11      1.0000    0.64707   0.52908   0.51791   Biso      1.000     Pr          2.040792  
         Pr12      1.0000    0.02908   0.01117   0.88201   Biso      1.000     Pr          2.040801  
         Pr13      1.0000    0.73836   0.59954   0.98346   Biso      1.000     Pr          2.042197  
         Pr14      1.0000    0.62916   0.14707   0.61799   Biso      1.000     Pr          2.040802  
         Pr15      1.0000    0.25490   0.23836   0.63882   Biso      1.000     Pr          2.042211  
         Pr16      1.0000    0.74510   0.76164   0.36118   Biso      1.000     Pr          2.042211 