
##########################################################################
#               Crystallographic Information Format file
#               Produced by PyCifRW module
#
#  This is a CIF file.  CIF has been adopted by the International
#  Union of Crystallography as the standard for data archiving and
#  transmission.
#
#  For information on this file format, follow the CIF links at
#  http://www.iucr.org
##########################################################################

data_image0

_cell_length_a                          16.5441
_cell_length_b                          16.5441
_cell_length_c                          16.5441
_cell_angle_alpha                       60.1036
_cell_angle_beta                        75.4761
_cell_angle_gamma                       104.524
_symmetry_space_group_name_H-M          'P 1'
_symmetry_int_tables_number             1
loop_
  _symmetry_equiv_pos_as_xyz
         'x, y, z' 
loop_
  _atom_site_label
  _atom_site_occupancy
  _atom_site_fract_x
  _atom_site_fract_y
  _atom_site_fract_z
  _atom_site_thermal_displace_type
  _atom_site_B_iso_or_equiv
  _atom_site_type_symbol
  _atom_site_charge
         C1        1.0000    0.37170   0.32040   0.52430   Biso      1.000     C          -0.045302           
         C2        1.0000    0.29630   0.86210   0.84660   Biso      1.000     C          0.211651  
         C3        1.0000    0.44730   0.80380   0.12610   Biso      1.000     C          0.636909  
         C4        1.0000    0.46480   0.76750   0.93410   Biso      1.000     C          0.638542  
         C5        1.0000    0.44250   0.70000   0.04530   Biso      1.000     C          0.016165  
         C6        1.0000    0.43260   0.71730   0.12230   Biso      1.000     C          -0.013878           
         C7        1.0000    0.40040   0.55570   0.18990   Biso      1.000     C          0.234962  
         C8        1.0000    0.16150   0.57740   0.36950   Biso      1.000     C          0.662098  
         C9        1.0000    0.00320   0.36780   0.40020   Biso      1.000     C          0.666694  
         C10       1.0000    0.09190   0.39230   0.40700   Biso      1.000     C          0.00496   
         C11       1.0000    0.15530   0.47570   0.39600   Biso      1.000     C          -0.04532  
         C12       1.0000    0.20370   0.35710   0.43420   Biso      1.000     C          0.211648  
         C13       1.0000    0.34470   0.94870   0.67960   Biso      1.000     C          -0.04532  
         C14       1.0000    0.57010   0.64350   0.80380   Biso      1.000     C          0.636909  
         C15       1.0000    0.75470   0.74250   0.70000   Biso      1.000     C          0.016177  
         C16       1.0000    0.66040   0.71530   0.71730   Biso      1.000     C          -0.013886           
         C17       1.0000    0.75440   0.84470   0.55570   Biso      1.000     C          0.23497   
         C18       1.0000    0.55310   0.58410   0.57740   Biso      1.000     C          0.66213   
         C19       1.0000    0.73200   0.63540   0.36780   Biso      1.000     C          0.666722  
         C20       1.0000    0.70070   0.69960   0.39230   Biso      1.000     C          0.004931  
         C21       1.0000    0.70870   0.84660   0.35710   Biso      1.000     C          0.211648  
         C22       1.0000    0.92990   0.12610   0.92660   Biso      1.000     C          0.636942  
         C23       1.0000    0.70160   0.93410   0.10110   Biso      1.000     C          0.638556  
         C24       1.0000    0.74530   0.04530   0.01220   Biso      1.000     C          0.01617   
         C25       1.0000    0.83960   0.12230   0.94510   Biso      1.000     C          -0.013899           
         C26       1.0000    0.79840   0.69730   0.76750   Biso      1.000     C          0.638536  
         C27       1.0000    0.74560   0.18990   0.90970   Biso      1.000     C          0.234995  
         C28       1.0000    0.40810   0.00110   0.69960   Biso      1.000     C          0.004953  
         C29       1.0000    0.33850   0.96900   0.58410   Biso      1.000     C          0.662104  
         C30       1.0000    0.42990   0.35650   0.19620   Biso      1.000     C          0.636909  
         C31       1.0000    0.20160   0.30270   0.23250   Biso      1.000     C          0.638536  
         C32       1.0000    0.24530   0.25750   0.30000   Biso      1.000     C          0.016177  
         C33       1.0000    0.33960   0.28470   0.28270   Biso      1.000     C          -0.013886           
         C34       1.0000    0.24560   0.15530   0.44430   Biso      1.000     C          0.23497   
         C35       1.0000    0.44690   0.41590   0.42260   Biso      1.000     C          0.66213   
         C36       1.0000    0.26800   0.36460   0.63220   Biso      1.000     C          0.666722  
         C37       1.0000    0.29930   0.30040   0.60770   Biso      1.000     C          0.004931  
         C38       1.0000    0.29130   0.15340   0.64290   Biso      1.000     C          0.211648  
         C39       1.0000    0.07010   0.87390   0.07340   Biso      1.000     C          0.636942  
         C40       1.0000    0.29840   0.06590   0.89890   Biso      1.000     C          0.638556  
         C41       1.0000    0.49680   0.09660   0.63540   Biso      1.000     C          0.666688  
         C42       1.0000    0.25470   0.95470   0.98780   Biso      1.000     C          0.01617   
         C43       1.0000    0.25440   0.81010   0.09030   Biso      1.000     C          0.234995  
         C44       1.0000    0.05310   0.63050   0.03100   Biso      1.000     C          0.662103  
         C45       1.0000    0.23200   0.59980   0.90340   Biso      1.000     C          0.666679  
         C46       1.0000    0.20070   0.59300   0.99890   Biso      1.000     C          0.004963  
         C47       1.0000    0.12830   0.60400   0.05130   Biso      1.000     C          -0.045329           
         C48       1.0000    0.20870   0.56580   0.13790   Biso      1.000     C          0.211649  
         C49       1.0000    0.05270   0.92660   0.64350   Biso      1.000     C          0.636928  
         C50       1.0000    0.03520   0.10110   0.69730   Biso      1.000     C          0.638537  
         C51       1.0000    0.05750   0.01220   0.74250   Biso      1.000     C          0.016181  
         C52       1.0000    0.06740   0.94510   0.71530   Biso      1.000     C          -0.013893           
         C53       1.0000    0.09960   0.90970   0.84470   Biso      1.000     C          0.234995  
         C54       1.0000    0.16040   0.87770   0.05490   Biso      1.000     C          -0.013899           
         C55       1.0000    0.94690   0.36950   0.96900   Biso      1.000     C          0.662103  
         C56       1.0000    0.62830   0.67960   0.47570   Biso      1.000     C          -0.045302           
         C57       1.0000    0.79930   0.40700   0.00110   Biso      1.000     C          0.004963  
         C58       1.0000    0.76800   0.40020   0.09660   Biso      1.000     C          0.666679  
         C59       1.0000    0.79630   0.64290   0.56580   Biso      1.000     C          0.211648  
         C60       1.0000    0.84470   0.52430   0.60400   Biso      1.000     C          -0.04532  
         C61       1.0000    0.90810   0.60770   0.59300   Biso      1.000     C          0.00496   
         C62       1.0000    0.99680   0.63220   0.59980   Biso      1.000     C          0.666694  
         C63       1.0000    0.83850   0.42260   0.63050   Biso      1.000     C          0.662098  
         C64       1.0000    0.59960   0.44430   0.81010   Biso      1.000     C          0.234962  
         C65       1.0000    0.56740   0.28270   0.87770   Biso      1.000     C          -0.013877           
         C66       1.0000    0.55750   0.30000   0.95470   Biso      1.000     C          0.016165  
         C67       1.0000    0.55270   0.19620   0.87390   Biso      1.000     C          0.636908  
         C68       1.0000    0.70370   0.13790   0.15340   Biso      1.000     C          0.211651  
         C69       1.0000    0.53520   0.23250   0.06590   Biso      1.000     C          0.638542  
         C70       1.0000    0.59190   0.99890   0.30040   Biso      1.000     C          0.004953  
         C71       1.0000    0.87170   0.39600   0.94870   Biso      1.000     C          -0.045329           
         C72       1.0000    0.79130   0.43420   0.86210   Biso      1.000     C          0.211649  
         C73       1.0000    0.94730   0.07340   0.35650   Biso      1.000     C          0.636928  
         C74       1.0000    0.65530   0.05130   0.32040   Biso      1.000     C          -0.045321           
         C75       1.0000    0.94250   0.98780   0.25750   Biso      1.000     C          0.016181  
         C76       1.0000    0.96480   0.89890   0.30270   Biso      1.000     C          0.638537  
         C77       1.0000    0.90040   0.09030   0.15530   Biso      1.000     C          0.234995  
         C78       1.0000    0.66150   0.03100   0.41590   Biso      1.000     C          0.662104  
         C79       1.0000    0.50320   0.90340   0.36460   Biso      1.000     C          0.666688  
         C80       1.0000    0.93260   0.05490   0.28470   Biso      1.000     C          -0.013893           
         H1        1.0000    0.76050   0.67850   0.55060   Biso      1.000     H          0.079325  
         H2        1.0000    0.72910   0.91800   0.32150   Biso      1.000     H          0.079327  
         H3        1.0000    0.61550   0.51420   0.76190   Biso      1.000     H          0.077919  
         H4        1.0000    0.73950   0.18890   0.08200   Biso      1.000     H          0.079327  
         H5        1.0000    0.88450   0.12260   0.10130   Biso      1.000     H          0.07789   
         H6        1.0000    0.72390   0.23810   0.87740   Biso      1.000     H          0.077892  
         H7        1.0000    0.77610   0.89870   0.48580   Biso      1.000     H          0.077919  
         H8        1.0000    0.77090   0.44940   0.81110   Biso      1.000     H          0.079328  
         H9        1.0000    0.38450   0.48580   0.23810   Biso      1.000     H          0.077919  
         H10       1.0000    0.26050   0.81110   0.91800   Biso      1.000     H          0.079327  
         H11       1.0000    0.11550   0.87740   0.89870   Biso      1.000     H          0.07789   
         H12       1.0000    0.22910   0.55060   0.18890   Biso      1.000     H          0.079328  
         H13       1.0000    0.27610   0.76190   0.12260   Biso      1.000     H          0.077892  
         H14       1.0000    0.27090   0.08200   0.67850   Biso      1.000     H          0.079327  
         H15       1.0000    0.22390   0.10130   0.51420   Biso      1.000     H          0.077919  
         H16       1.0000    0.23950   0.32150   0.44940   Biso      1.000     H          0.079325  
         N1        1.0000    0.77370   0.54890   0.58640   Biso      1.000     N          -0.467557           
         N2        1.0000    0.59660   0.37990   0.78370   Biso      1.000     N          -0.460156           
         N3        1.0000    0.57840   0.40270   0.90910   Biso      1.000     N          -0.446264           
         N4        1.0000    0.62460   0.05520   0.19560   Biso      1.000     N          -0.430798           
         N5        1.0000    0.72630   0.13990   0.22480   Biso      1.000     N          -0.467554           
         N6        1.0000    0.90340   0.11970   0.21670   Biso      1.000     N          -0.460163           
         N7        1.0000    0.86470   0.41360   0.86010   Biso      1.000     N          -0.467554           
         N8        1.0000    0.75080   0.43060   0.94480   Biso      1.000     N          -0.430805           
         N9        1.0000    0.87540   0.67980   0.56940   Biso      1.000     N          -0.430809           
         N10       1.0000    0.83640   0.21630   0.88030   Biso      1.000     N          -0.460163           
         N11       1.0000    0.68820   0.09090   0.98750   Biso      1.000     N          -0.446275           
         N12       1.0000    0.74920   0.80440   0.32020   Biso      1.000     N          -0.430802           
         N13       1.0000    0.63530   0.77520   0.45110   Biso      1.000     N          -0.467569           
         N14       1.0000    0.92160   0.01250   0.17570   Biso      1.000     N          -0.446278           
         N15       1.0000    0.18820   0.17570   0.40270   Biso      1.000     N          -0.446275           
         N16       1.0000    0.31180   0.90910   0.01250   Biso      1.000     N          -0.446275           
         N17       1.0000    0.36470   0.22480   0.54890   Biso      1.000     N          -0.467569           
         N18       1.0000    0.25080   0.19560   0.67980   Biso      1.000     N          -0.430802           
         N19       1.0000    0.16360   0.78370   0.11970   Biso      1.000     N          -0.460163           
         N20       1.0000    0.13530   0.58640   0.13990   Biso      1.000     N          -0.467554           
         N21       1.0000    0.24920   0.56940   0.05520   Biso      1.000     N          -0.430805           
         N22       1.0000    0.12460   0.32020   0.43060   Biso      1.000     N          -0.430809           
         N23       1.0000    0.07840   0.98750   0.82430   Biso      1.000     N          -0.446278           
         N24       1.0000    0.09660   0.88030   0.78330   Biso      1.000     N          -0.460163           
         N25       1.0000    0.27370   0.86010   0.77520   Biso      1.000     N          -0.467554           
         N26       1.0000    0.37540   0.94480   0.80440   Biso      1.000     N          -0.430799           
         N27       1.0000    0.42160   0.59730   0.09090   Biso      1.000     N          -0.446264           
         N28       1.0000    0.40340   0.62010   0.21630   Biso      1.000     N          -0.460156           
         N29       1.0000    0.22630   0.45110   0.41360   Biso      1.000     N          -0.467557           
         N30       1.0000    0.66360   0.78330   0.62010   Biso      1.000     N          -0.460161           
         N31       1.0000    0.33640   0.21670   0.37990   Biso      1.000     N          -0.460161           
         N32       1.0000    0.81180   0.82430   0.59730   Biso      1.000     N          -0.446275           
         Nd1       1.0000    0.63902   0.40079   0.61579   Biso      1.000     Nd          2.026211  
         Nd2       1.0000    0.11772   0.12901   0.85283   Biso      1.000     Nd          2.027425  
         Nd3       1.0000    0.86098   0.24519   0.23823   Biso      1.000     Nd          2.02622   
         Nd4       1.0000    0.51816   0.98871   0.12901   Biso      1.000     Nd          2.027401  
         Nd5       1.0000    0.98342   0.38421   0.75481   Biso      1.000     Nd          2.02623   
         Nd6       1.0000    0.61772   0.47055   0.01129   Biso      1.000     Nd          2.027395  
         Nd7       1.0000    0.51658   0.76177   0.59921   Biso      1.000     Nd          2.026225  
         Nd8       1.0000    0.88228   0.87099   0.14717   Biso      1.000     Nd          2.027425  
         Nd9       1.0000    0.98184   0.85283   0.52945   Biso      1.000     Nd          2.027411  
         Nd10      1.0000    0.01816   0.14717   0.47055   Biso      1.000     Nd          2.027411  
         Nd11      1.0000    0.13902   0.75481   0.76177   Biso      1.000     Nd          2.026221  
         Nd12      1.0000    0.48184   0.01129   0.87099   Biso      1.000     Nd          2.027402  
         Nd13      1.0000    0.01658   0.61579   0.24519   Biso      1.000     Nd          2.026231  
         Nd14      1.0000    0.38228   0.52945   0.98871   Biso      1.000     Nd          2.027396  
         Nd15      1.0000    0.48342   0.23823   0.40079   Biso      1.000     Nd          2.026225  
         Nd16      1.0000    0.36098   0.59921   0.38421   Biso      1.000     Nd          2.026211  
         O1        1.0000    0.04680   0.15350   0.73350   Biso      1.000     O          -0.62567  
         O2        1.0000    0.27180   0.90010   0.59830   Biso      1.000     O          -0.642943           
         O3        1.0000    0.39250   0.05600   0.49730   Biso      1.000     O          -0.673356           
         O4        1.0000    0.52730   0.16060   0.53830   Biso      1.000     O          -0.716189           
         O5        1.0000    0.54230   0.10900   0.68290   Biso      1.000     O          -0.658929           
         O6        1.0000    0.42680   0.78800   0.21340   Biso      1.000     O          -0.687089           
         O7        1.0000    0.45320   0.71970   0.89330   Biso      1.000     O          -0.625662           
         O8        1.0000    0.49620   0.86560   0.88520   Biso      1.000     O          -0.668999           
         O9        1.0000    0.22820   0.62990   0.37170   Biso      1.000     O          -0.642935           
         O10       1.0000    0.10750   0.61020   0.33650   Biso      1.000     O          -0.673359           
         O11       1.0000    0.97270   0.43440   0.36670   Biso      1.000     O          -0.716195           
         O12       1.0000    0.00380   0.11860   0.63060   Biso      1.000     O          -0.669003           
         O13       1.0000    0.48390   0.89860   0.04310   Biso      1.000     O          -0.745696           
         O14       1.0000    0.01610   0.97300   0.58530   Biso      1.000     O          -0.745695           
         O15       1.0000    0.05830   0.95690   0.02700   Biso      1.000     O          -0.745701           
         O16       1.0000    0.29190   0.56670   0.89100   Biso      1.000     O          -0.658924           
         O17       1.0000    0.19890   0.63330   0.83940   Biso      1.000     O          -0.716187           
         O18       1.0000    0.05330   0.66350   0.94400   Biso      1.000     O          -0.673355           
         O19       1.0000    0.99840   0.62830   0.09990   Biso      1.000     O          -0.64294  
         O20       1.0000    0.38700   0.10670   0.84650   Biso      1.000     O          -0.625663           
         O21       1.0000    0.24920   0.11480   0.88140   Biso      1.000     O          -0.669019           
         O22       1.0000    0.95770   0.27480   0.43330   Biso      1.000     O          -0.658924           
         O23       1.0000    0.99860   0.78660   0.14020   Biso      1.000     O          -0.6871   
         O24       1.0000    0.20810   0.31710   0.72520   Biso      1.000     O          -0.658934           
         O25       1.0000    0.30110   0.46170   0.56560   Biso      1.000     O          -0.716206           
         O26       1.0000    0.44670   0.50270   0.38980   Biso      1.000     O          -0.673367           
         O27       1.0000    0.50160   0.40170   0.37010   Biso      1.000     O          -0.642952           
         O28       1.0000    0.11300   0.26650   0.28030   Biso      1.000     O          -0.625661           
         O29       1.0000    0.25080   0.36940   0.13440   Biso      1.000     O          -0.669006           
         O30       1.0000    0.07320   0.85980   0.63880   Biso      1.000     O          -0.687095           
         O31       1.0000    0.49860   0.63880   0.78800   Biso      1.000     O          -0.687091           
         O32       1.0000    0.79190   0.68290   0.27480   Biso      1.000     O          -0.658934           
         O33       1.0000    0.74920   0.63060   0.86560   Biso      1.000     O          -0.669006           
         O34       1.0000    0.04230   0.72520   0.56670   Biso      1.000     O          -0.658924           
         O35       1.0000    0.02730   0.56560   0.63330   Biso      1.000     O          -0.716195           
         O36       1.0000    0.89250   0.38980   0.66350   Biso      1.000     O          -0.673359           
         O37       1.0000    0.77180   0.37010   0.62830   Biso      1.000     O          -0.642935           
         O38       1.0000    0.54680   0.28030   0.10670   Biso      1.000     O          -0.625662           
         O39       1.0000    0.50380   0.13440   0.11480   Biso      1.000     O          -0.668999           
         O40       1.0000    0.51610   0.10140   0.95690   Biso      1.000     O          -0.745696           
         O41       1.0000    0.57320   0.21200   0.78660   Biso      1.000     O          -0.687089           
         O42       1.0000    0.45770   0.89100   0.31710   Biso      1.000     O          -0.658929           
         O43       1.0000    0.47270   0.83940   0.46170   Biso      1.000     O          -0.716189           
         O44       1.0000    0.60750   0.94400   0.50270   Biso      1.000     O          -0.673357           
         O45       1.0000    0.72820   0.09990   0.40170   Biso      1.000     O          -0.642943           
         O46       1.0000    0.95320   0.84650   0.26650   Biso      1.000     O          -0.62567  
         O47       1.0000    0.99620   0.88140   0.36940   Biso      1.000     O          -0.669003           
         O48       1.0000    0.98390   0.02700   0.41470   Biso      1.000     O          -0.745695           
         O49       1.0000    0.92680   0.14020   0.36120   Biso      1.000     O          -0.687095           
         O50       1.0000    0.70810   0.43330   0.10900   Biso      1.000     O          -0.658924           
         O51       1.0000    0.80110   0.36670   0.16060   Biso      1.000     O          -0.716187           
         O52       1.0000    0.94670   0.33650   0.05600   Biso      1.000     O          -0.673355           
         O53       1.0000    0.00160   0.37170   0.90010   Biso      1.000     O          -0.64294  
         O54       1.0000    0.61300   0.89330   0.15350   Biso      1.000     O          -0.625663           
         O55       1.0000    0.75080   0.88520   0.11860   Biso      1.000     O          -0.669019           
         O56       1.0000    0.94170   0.04310   0.97300   Biso      1.000     O          -0.745701           
         O57       1.0000    0.00140   0.21340   0.85980   Biso      1.000     O          -0.6871   
         O58       1.0000    0.44170   0.41470   0.10140   Biso      1.000     O          -0.745686           
         O59       1.0000    0.69890   0.53830   0.43440   Biso      1.000     O          -0.716206           
         O60       1.0000    0.55330   0.49730   0.61020   Biso      1.000     O          -0.673367           
         O61       1.0000    0.49840   0.59830   0.62990   Biso      1.000     O          -0.642952           
         O62       1.0000    0.88700   0.73350   0.71970   Biso      1.000     O          -0.625661           
         O63       1.0000    0.55830   0.58530   0.89860   Biso      1.000     O          -0.745686           
         O64       1.0000    0.50140   0.36120   0.21200   Biso      1.000     O          -0.687091 