
##########################################################################
#               Crystallographic Information Format file
#               Produced by PyCifRW module
#
#  This is a CIF file.  CIF has been adopted by the International
#  Union of Crystallography as the standard for data archiving and
#  transmission.
#
#  For information on this file format, follow the CIF links at
#  http://www.iucr.org
##########################################################################

data_image0

_cell_length_a                          16.1159
_cell_length_b                          16.4422
_cell_length_c                          16.4422
_cell_angle_alpha                       76.103
_cell_angle_beta                        60.6542
_cell_angle_gamma                       60.6543
_symmetry_space_group_name_H-M          'P 1'
_symmetry_int_tables_number             1
loop_
  _symmetry_equiv_pos_as_xyz
         'x, y, z' 
loop_
  _atom_site_label
  _atom_site_occupancy
  _atom_site_fract_x
  _atom_site_fract_y
  _atom_site_fract_z
  _atom_site_thermal_displace_type
  _atom_site_B_iso_or_equiv
  _atom_site_type_symbol
  _atom_site_charge
         C1        1.0000    0.09680   0.32890   0.86870   Biso      1.000     C          -0.040577           
         C2        1.0000    0.36030   0.58610   0.24150   Biso      1.000     C          0.226897  
         C3        1.0000    0.11380   0.82110   0.44770   Biso      1.000     C          0.64673   
         C4        1.0000    0.14520   0.98460   0.27640   Biso      1.000     C          0.660531  
         C5        1.0000    0.21740   0.89450   0.29690   Biso      1.000     C          -0.002973           
         C6        1.0000    0.20560   0.82890   0.36870   Biso      1.000     C          -0.040582           
         C7        1.0000    0.37060   0.78270   0.27730   Biso      1.000     C          0.224457  
         C8        1.0000    0.58230   0.56920   0.04640   Biso      1.000     C          0.626566  
         C9        1.0000    0.22760   0.55780   0.33660   Biso      1.000     C          -0.001208           
         C10       1.0000    0.40020   0.79420   0.03240   Biso      1.000     C          0.652731  
         C11       1.0000    0.56420   0.66340   0.05780   Biso      1.000     C          0.001487  
         C12       1.0000    0.60180   0.75850   0.08610   Biso      1.000     C          0.229238  
         C13       1.0000    0.56150   0.55230   0.32110   Biso      1.000     C          0.644082  
         C14       1.0000    0.42160   0.72360   0.48460   Biso      1.000     C          0.662314  
         C15       1.0000    0.51430   0.70310   0.39450   Biso      1.000     C          -0.002165           
         C16       1.0000    0.57430   0.63130   0.32890   Biso      1.000     C          -0.037447           
         C17       1.0000    0.64790   0.72270   0.28270   Biso      1.000     C          0.225444  
         C18       1.0000    0.49370   0.75420   0.04980   Biso      1.000     C          0.01212   
         C19       1.0000    0.69790   0.93080   0.45360   Biso      1.000     C          0.628795  
         C20       1.0000    0.24790   0.54980   0.24580   Biso      1.000     C          0.015373  
         C21       1.0000    0.15150   0.54640   0.43080   Biso      1.000     C          0.630521  
         C22       1.0000    0.05360   0.25850   0.58610   Biso      1.000     C          0.227847  
         C23       1.0000    0.06510   0.05230   0.82110   Biso      1.000     C          0.64358   
         C24       1.0000    0.87020   0.22360   0.98460   Biso      1.000     C          0.661527  
         C25       1.0000    0.88810   0.20310   0.89450   Biso      1.000     C          -0.000955           
         C26       1.0000    0.96550   0.13130   0.82890   Biso      1.000     C          -0.037247           
         C27       1.0000    0.84670   0.22270   0.78270   Biso      1.000     C          0.22534   
         C28       1.0000    0.62870   0.95360   0.06920   Biso      1.000     C          0.627259  
         C29       1.0000    0.19440   0.53240   0.20580   Biso      1.000     C          0.652664  
         C30       1.0000    0.43260   0.96760   0.29420   Biso      1.000     C          0.654621  
         C31       1.0000    0.62200   0.94220   0.16340   Biso      1.000     C          0.002898  
         C32       1.0000    0.68790   0.91390   0.25850   Biso      1.000     C          0.227229  
         C33       1.0000    0.88260   0.67890   0.05230   Biso      1.000     C          0.644641  
         C34       1.0000    0.90620   0.51540   0.22360   Biso      1.000     C          0.659519  
         C35       1.0000    0.90880   0.60550   0.20310   Biso      1.000     C          -0.001048           
         C36       1.0000    0.90320   0.67110   0.13130   Biso      1.000     C          -0.040577           
         C37       1.0000    0.93060   0.71730   0.22270   Biso      1.000     C          0.224975  
         C38       1.0000    0.54350   0.95020   0.25420   Biso      1.000     C          0.011628  
         C39       1.0000    0.72680   0.70580   0.46760   Biso      1.000     C          0.651789  
         C40       1.0000    0.79770   0.74580   0.45020   Biso      1.000     C          0.01183   
         C41       1.0000    0.78540   0.83660   0.44220   Biso      1.000     C          0.000267  
         C42       1.0000    0.85480   0.01540   0.72360   Biso      1.000     C          0.660531  
         C43       1.0000    0.88620   0.17890   0.55230   Biso      1.000     C          0.64673   
         C44       1.0000    0.63970   0.41390   0.75850   Biso      1.000     C          0.226897  
         C45       1.0000    0.77240   0.44220   0.66340   Biso      1.000     C          -0.001208           
         C46       1.0000    0.75210   0.45020   0.75420   Biso      1.000     C          0.015373  
         C47       1.0000    0.80560   0.46760   0.79420   Biso      1.000     C          0.652665  
         C48       1.0000    0.84850   0.45360   0.56920   Biso      1.000     C          0.63052   
         C49       1.0000    0.78260   0.10550   0.70310   Biso      1.000     C          -0.002973           
         C50       1.0000    0.06940   0.28270   0.77730   Biso      1.000     C          0.224975  
         C51       1.0000    0.09380   0.48460   0.77640   Biso      1.000     C          0.659519  
         C52       1.0000    0.11740   0.32110   0.94770   Biso      1.000     C          0.644641  
         C53       1.0000    0.31210   0.08610   0.74150   Biso      1.000     C          0.227228  
         C54       1.0000    0.37800   0.05780   0.83660   Biso      1.000     C          0.002898  
         C55       1.0000    0.45650   0.04980   0.74580   Biso      1.000     C          0.011628  
         C56       1.0000    0.56740   0.03240   0.70580   Biso      1.000     C          0.654621  
         C57       1.0000    0.37130   0.04640   0.93080   Biso      1.000     C          0.627259  
         C58       1.0000    0.09120   0.39450   0.79690   Biso      1.000     C          -0.001048           
         C59       1.0000    0.79440   0.17110   0.63130   Biso      1.000     C          -0.040582           
         C60       1.0000    0.62940   0.21730   0.72270   Biso      1.000     C          0.224457  
         C61       1.0000    0.41770   0.43080   0.95360   Biso      1.000     C          0.626566  
         C62       1.0000    0.94640   0.74150   0.41390   Biso      1.000     C          0.227847  
         C63       1.0000    0.93490   0.94770   0.17890   Biso      1.000     C          0.64358   
         C64       1.0000    0.12980   0.77640   0.01540   Biso      1.000     C          0.661527  
         C65       1.0000    0.11190   0.79690   0.10550   Biso      1.000     C          -0.000955           
         C66       1.0000    0.03450   0.86870   0.17110   Biso      1.000     C          -0.037247           
         C67       1.0000    0.15330   0.77730   0.21730   Biso      1.000     C          0.22534   
         C68       1.0000    0.27320   0.29420   0.53240   Biso      1.000     C          0.651789  
         C69       1.0000    0.30210   0.06920   0.54640   Biso      1.000     C          0.628795  
         C70       1.0000    0.35210   0.27730   0.71730   Biso      1.000     C          0.225444  
         C71       1.0000    0.42570   0.36870   0.67110   Biso      1.000     C          -0.037446           
         C72       1.0000    0.48570   0.29690   0.60550   Biso      1.000     C          -0.002165           
         C73       1.0000    0.57840   0.27640   0.51540   Biso      1.000     C          0.662314  
         C74       1.0000    0.43850   0.44770   0.67890   Biso      1.000     C          0.644082  
         C75       1.0000    0.39820   0.24150   0.91390   Biso      1.000     C          0.229238  
         C76       1.0000    0.43580   0.33660   0.94220   Biso      1.000     C          0.001487  
         C77       1.0000    0.50630   0.24580   0.95020   Biso      1.000     C          0.01212   
         C78       1.0000    0.59980   0.20580   0.96760   Biso      1.000     C          0.652731  
         C79       1.0000    0.21460   0.16340   0.55780   Biso      1.000     C          0.000266  
         C80       1.0000    0.20230   0.25420   0.54980   Biso      1.000     C          0.011831  
         Gd1       1.0000    0.91548   0.96807   0.37923   Biso      1.000     Gd          1.997068  
         Gd2       1.0000    0.08452   0.03193   0.62077   Biso      1.000     Gd          1.997067  
         Gd3       1.0000    0.35039   0.61337   0.02367   Biso      1.000     Gd          1.980145  
         Gd4       1.0000    0.76278   0.53193   0.12077   Biso      1.000     Gd          1.996848  
         Gd5       1.0000    0.48743   0.88663   0.47633   Biso      1.000     Gd          1.979247  
         Gd6       1.0000    0.29471   0.62077   0.46807   Biso      1.000     Gd          1.99651   
         Gd7       1.0000    0.37406   0.97633   0.11337   Biso      1.000     Gd          1.979862  
         Gd8       1.0000    0.88355   0.87923   0.03193   Biso      1.000     Gd          1.997137  
         Gd9       1.0000    0.96376   0.52367   0.38663   Biso      1.000     Gd          1.980467  
         Gd10      1.0000    0.64961   0.38663   0.97633   Biso      1.000     Gd          1.980146  
         Gd11      1.0000    0.23722   0.46807   0.87923   Biso      1.000     Gd          1.996848  
         Gd12      1.0000    0.51257   0.11337   0.52367   Biso      1.000     Gd          1.979248  
         Gd13      1.0000    0.70529   0.37923   0.53193   Biso      1.000     Gd          1.99651   
         Gd14      1.0000    0.62594   0.02367   0.88663   Biso      1.000     Gd          1.979862  
         Gd15      1.0000    0.11645   0.12077   0.96807   Biso      1.000     Gd          1.997137  
         Gd16      1.0000    0.03624   0.47633   0.61337   Biso      1.000     Gd          1.980468  
         H1        1.0000    0.26100   0.10600   0.72200   Biso      1.000     H          0.077841  
         H2        1.0000    0.06200   0.24000   0.74600   Biso      1.000     H          0.070399  
         H3        1.0000    0.01700   0.72200   0.39400   Biso      1.000     H          0.077958  
         H4        1.0000    0.19200   0.74600   0.26000   Biso      1.000     H          0.071185  
         H5        1.0000    0.58900   0.39400   0.77800   Biso      1.000     H          0.077913  
         H6        1.0000    0.54800   0.26000   0.75400   Biso      1.000     H          0.071263  
         H7        1.0000    0.36700   0.22200   0.89400   Biso      1.000     H          0.077421  
         H8        1.0000    0.98300   0.27800   0.60600   Biso      1.000     H          0.077958  
         H9        1.0000    0.80800   0.25400   0.74000   Biso      1.000     H          0.071184  
         H10       1.0000    0.30200   0.24600   0.76000   Biso      1.000     H          0.071519  
         H11       1.0000    0.93800   0.76000   0.25400   Biso      1.000     H          0.0704    
         H12       1.0000    0.41100   0.60600   0.22200   Biso      1.000     H          0.077913  
         H13       1.0000    0.45200   0.74000   0.24600   Biso      1.000     H          0.071263  
         H14       1.0000    0.63300   0.77800   0.10600   Biso      1.000     H          0.077421  
         H15       1.0000    0.69800   0.75400   0.24000   Biso      1.000     H          0.071519  
         H16       1.0000    0.73900   0.89400   0.27800   Biso      1.000     H          0.077841  
         N1        1.0000    0.11750   0.16710   0.58250   Biso      1.000     N          -0.484943           
         N2        1.0000    0.48160   0.18590   0.93170   Biso      1.000     N          -0.444982           
         N3        1.0000    0.09920   0.31410   0.56830   Biso      1.000     N          -0.443718           
         N4        1.0000    0.43690   0.23940   0.63600   Biso      1.000     N          -0.434816           
         N5        1.0000    0.34100   0.35460   0.74200   Biso      1.000     N          -0.462947           
         N6        1.0000    0.36710   0.33290   0.91750   Biso      1.000     N          -0.486175           
         N7        1.0000    0.67630   0.13600   0.76060   Biso      1.000     N          -0.434494           
         N8        1.0000    0.41330   0.06830   0.68590   Biso      1.000     N          -0.444103           
         N9        1.0000    0.70000   0.41750   0.66710   Biso      1.000     N          -0.4839   
         N10       1.0000    0.66750   0.43170   0.81410   Biso      1.000     N          -0.445802           
         N11       1.0000    0.07290   0.36400   0.73940   Biso      1.000     N          -0.434625           
         N12       1.0000    0.08300   0.25800   0.85460   Biso      1.000     N          -0.46039  
         N13       1.0000    0.28460   0.08250   0.83290   Biso      1.000     N          -0.486302           
         N14       1.0000    0.93760   0.14540   0.75800   Biso      1.000     N          -0.463939           
         N15       1.0000    0.69560   0.24200   0.64540   Biso      1.000     N          -0.459652           
         N16       1.0000    0.81230   0.26060   0.86400   Biso      1.000     N          -0.435514           
         N17       1.0000    0.58670   0.93170   0.31410   Biso      1.000     N          -0.444103           
         N18       1.0000    0.71540   0.91750   0.16710   Biso      1.000     N          -0.486302           
         N19       1.0000    0.06240   0.85460   0.24200   Biso      1.000     N          -0.463939           
         N20       1.0000    0.88250   0.83290   0.41750   Biso      1.000     N          -0.484943           
         N21       1.0000    0.90080   0.68590   0.43170   Biso      1.000     N          -0.443718           
         N22       1.0000    0.56310   0.76060   0.36400   Biso      1.000     N          -0.434816           
         N23       1.0000    0.65900   0.64540   0.25800   Biso      1.000     N          -0.462947           
         N24       1.0000    0.63290   0.66710   0.08250   Biso      1.000     N          -0.486175           
         N25       1.0000    0.18770   0.73940   0.13600   Biso      1.000     N          -0.435513           
         N26       1.0000    0.32370   0.86400   0.23940   Biso      1.000     N          -0.434494           
         N27       1.0000    0.30440   0.75800   0.35460   Biso      1.000     N          -0.459652           
         N28       1.0000    0.30000   0.58250   0.33290   Biso      1.000     N          -0.4839   
         N29       1.0000    0.33250   0.56830   0.18590   Biso      1.000     N          -0.445802           
         N30       1.0000    0.92710   0.63600   0.26060   Biso      1.000     N          -0.434625           
         N31       1.0000    0.91700   0.74200   0.14540   Biso      1.000     N          -0.46039  
         N32       1.0000    0.51840   0.81410   0.06830   Biso      1.000     N          -0.444982           
         O1        1.0000    0.65330   0.11830   0.95730   Biso      1.000     O          -0.62739  
         O2        1.0000    0.35950   0.50780   0.74080   Biso      1.000     O          -0.641849           
         O3        1.0000    0.52320   0.45470   0.62850   Biso      1.000     O          -0.663177           
         O4        1.0000    0.63310   0.32110   0.48210   Biso      1.000     O          -0.681446           
         O5        1.0000    0.60420   0.20730   0.46990   Biso      1.000     O          -0.645194           
         O6        1.0000    0.28020   0.00100   0.56800   Biso      1.000     O          -0.660833           
         O7        1.0000    0.22890   0.38170   0.54270   Biso      1.000     O          -0.625519           
         O8        1.0000    0.37040   0.24370   0.50590   Biso      1.000     O          -0.663289           
         O9        1.0000    0.10810   0.99220   0.75920   Biso      1.000     O          -0.641167           
         O10       1.0000    0.10640   0.04530   0.87150   Biso      1.000     O          -0.661896           
         O11       1.0000    0.93630   0.17890   0.01790   Biso      1.000     O          -0.682019           
         O12       1.0000    0.62000   0.25630   0.99410   Biso      1.000     O          -0.660976           
         O13       1.0000    0.39830   0.05540   0.51460   Biso      1.000     O          -0.730398           
         O14       1.0000    0.46830   0.44460   0.98540   Biso      1.000     O          -0.730033           
         O15       1.0000    0.91290   0.48540   0.55540   Biso      1.000     O          -0.731128           
         O16       1.0000    0.81150   0.96990   0.79270   Biso      1.000     O          -0.644279           
         O17       1.0000    0.95420   0.98210   0.67890   Biso      1.000     O          -0.680494           
         O18       1.0000    0.97790   0.12850   0.54530   Biso      1.000     O          -0.663512           
         O19       1.0000    0.86730   0.24080   0.49220   Biso      1.000     O          -0.64285  
         O20       1.0000    0.77160   0.45730   0.88170   Biso      1.000     O          -0.626816           
         O21       1.0000    0.87630   0.49410   0.74370   Biso      1.000     O          -0.663443           
         O22       1.0000    0.78140   0.29270   0.03010   Biso      1.000     O          -0.644982           
         O23       1.0000    0.84820   0.43200   0.50100   Biso      1.000     O          -0.662279           
         O24       1.0000    0.07410   0.53010   0.70730   Biso      1.000     O          -0.644461           
         O25       1.0000    0.11520   0.51790   0.82110   Biso      1.000     O          -0.680594           
         O26       1.0000    0.15170   0.37150   0.95470   Biso      1.000     O          -0.662487           
         O27       1.0000    0.10030   0.25920   0.00780   Biso      1.000     O          -0.641671           
         O28       1.0000    0.61060   0.04270   0.61830   Biso      1.000     O          -0.626697           
         O29       1.0000    0.61410   0.00590   0.75630   Biso      1.000     O          -0.663942           
         O30       1.0000    0.34920   0.49900   0.93200   Biso      1.000     O          -0.66076  
         O31       1.0000    0.71880   0.93200   0.00100   Biso      1.000     O          -0.661103           
         O32       1.0000    0.21860   0.70730   0.96990   Biso      1.000     O          -0.644982           
         O33       1.0000    0.38590   0.99410   0.24370   Biso      1.000     O          -0.663942           
         O34       1.0000    0.45370   0.01460   0.94460   Biso      1.000     O          -0.7305   
         O35       1.0000    0.06370   0.82110   0.98210   Biso      1.000     O          -0.682019           
         O36       1.0000    0.89360   0.95470   0.12850   Biso      1.000     O          -0.661896           
         O37       1.0000    0.89190   0.00780   0.24080   Biso      1.000     O          -0.641167           
         O38       1.0000    0.77110   0.61830   0.45730   Biso      1.000     O          -0.625519           
         O39       1.0000    0.62960   0.75630   0.49410   Biso      1.000     O          -0.663289           
         O40       1.0000    0.60170   0.94460   0.48540   Biso      1.000     O          -0.730398           
         O41       1.0000    0.71980   0.99900   0.43200   Biso      1.000     O          -0.660833           
         O42       1.0000    0.39580   0.79270   0.53010   Biso      1.000     O          -0.645194           
         O43       1.0000    0.36690   0.67890   0.51790   Biso      1.000     O          -0.681446           
         O44       1.0000    0.47680   0.54530   0.37150   Biso      1.000     O          -0.663177           
         O45       1.0000    0.64050   0.49220   0.25920   Biso      1.000     O          -0.641849           
         O46       1.0000    0.34670   0.88170   0.04270   Biso      1.000     O          -0.62739  
         O47       1.0000    0.38000   0.74370   0.00590   Biso      1.000     O          -0.660976           
         O48       1.0000    0.53170   0.55540   0.01460   Biso      1.000     O          -0.730033           
         O49       1.0000    0.65080   0.50100   0.06800   Biso      1.000     O          -0.66076  
         O50       1.0000    0.18850   0.03010   0.20730   Biso      1.000     O          -0.644279           
         O51       1.0000    0.04580   0.01790   0.32110   Biso      1.000     O          -0.680494           
         O52       1.0000    0.02210   0.87150   0.45470   Biso      1.000     O          -0.663513           
         O53       1.0000    0.13270   0.75920   0.50780   Biso      1.000     O          -0.64285  
         O54       1.0000    0.22840   0.54270   0.11830   Biso      1.000     O          -0.626816           
         O55       1.0000    0.12370   0.50590   0.25630   Biso      1.000     O          -0.663443           
         O56       1.0000    0.08710   0.51460   0.44460   Biso      1.000     O          -0.731128           
         O57       1.0000    0.15180   0.56800   0.49900   Biso      1.000     O          -0.662279           
         O58       1.0000    0.92590   0.46990   0.29270   Biso      1.000     O          -0.644461           
         O59       1.0000    0.88480   0.48210   0.17890   Biso      1.000     O          -0.680594           
         O60       1.0000    0.84830   0.62850   0.04530   Biso      1.000     O          -0.662487           
         O61       1.0000    0.89970   0.74080   0.99220   Biso      1.000     O          -0.641672           
         O62       1.0000    0.38940   0.95730   0.38170   Biso      1.000     O          -0.626697           
         O63       1.0000    0.54630   0.98540   0.05540   Biso      1.000     O          -0.7305   
         O64       1.0000    0.28120   0.06800   0.99900   Biso      1.000     O          -0.661103 