
##########################################################################
#               Crystallographic Information Format file
#               Produced by PyCifRW module
#
#  This is a CIF file.  CIF has been adopted by the International
#  Union of Crystallography as the standard for data archiving and
#  transmission.
#
#  For information on this file format, follow the CIF links at
#  http://www.iucr.org
##########################################################################

data_image0

_cell_length_a                          16.023
_cell_length_b                          16.3833
_cell_length_c                          16.3833
_cell_angle_alpha                       76.1651
_cell_angle_beta                        60.7249
_cell_angle_gamma                       60.7248
_symmetry_space_group_name_H-M          'P 1'
_symmetry_int_tables_number             1
loop_
  _symmetry_equiv_pos_as_xyz
         'x, y, z' 
loop_
  _atom_site_label
  _atom_site_occupancy
  _atom_site_fract_x
  _atom_site_fract_y
  _atom_site_fract_z
  _atom_site_thermal_displace_type
  _atom_site_B_iso_or_equiv
  _atom_site_type_symbol
  _atom_site_charge
         C1        1.0000    0.90270   0.13250   0.67170   Biso      1.000     C          -0.043702           
         C2        1.0000    0.58430   0.04670   0.56970   Biso      1.000     C          0.628756  
         C3        1.0000    0.39920   0.03260   0.79620   Biso      1.000     C          0.655227  
         C4        1.0000    0.49510   0.04890   0.75330   Biso      1.000     C          0.024286  
         C5        1.0000    0.56310   0.05700   0.66420   Biso      1.000     C          0.004021  
         C6        1.0000    0.60430   0.08460   0.75820   Biso      1.000     C          0.243721  
         C7        1.0000    0.56280   0.32140   0.55240   Biso      1.000     C          0.647488  
         C8        1.0000    0.42050   0.48370   0.72550   Biso      1.000     C          0.667223  
         C9        1.0000    0.51470   0.39360   0.70380   Biso      1.000     C          -0.00084  
         C10       1.0000    0.57440   0.32830   0.63250   Biso      1.000     C          -0.044565           
         C11       1.0000    0.64600   0.28350   0.72630   Biso      1.000     C          0.209951  
         C12       1.0000    0.36900   0.93030   0.04670   Biso      1.000     C          0.63179   
         C13       1.0000    0.15580   0.21650   0.77370   Biso      1.000     C          0.213849  
         C14       1.0000    0.56820   0.70380   0.03260   Biso      1.000     C          0.655327  
         C15       1.0000    0.37990   0.83580   0.05700   Biso      1.000     C          0.003681  
         C16       1.0000    0.31110   0.74180   0.08460   Biso      1.000     C          0.247131  
         C17       1.0000    0.11580   0.94760   0.32140   Biso      1.000     C          0.650078  
         C18       1.0000    0.09580   0.77450   0.48370   Biso      1.000     C          0.666355  
         C19       1.0000    0.09170   0.79620   0.39360   Biso      1.000     C          0.000841  
         C20       1.0000    0.09730   0.86750   0.32830   Biso      1.000     C          -0.043702           
         C21       1.0000    0.07050   0.77370   0.28350   Biso      1.000     C          0.213154  
         C22       1.0000    0.84600   0.56970   0.45330   Biso      1.000     C          0.634474  
         C23       1.0000    0.80460   0.79620   0.46740   Biso      1.000     C          0.652317  
         C24       1.0000    0.75160   0.75330   0.45110   Biso      1.000     C          0.026302  
         C25       1.0000    0.77270   0.66420   0.44300   Biso      1.000     C          0.002164  
         C26       1.0000    0.45600   0.74670   0.04890   Biso      1.000     C          0.025428  
         C27       1.0000    0.63750   0.75820   0.41540   Biso      1.000     C          0.241947  
         C28       1.0000    0.11210   0.10640   0.79620   Biso      1.000     C          5.3e-05   
         C29       1.0000    0.93660   0.17860   0.94760   Biso      1.000     C          0.645328  
         C30       1.0000    0.63100   0.06970   0.95330   Biso      1.000     C          0.631788  
         C31       1.0000    0.43180   0.29620   0.96740   Biso      1.000     C          0.655329  
         C32       1.0000    0.54400   0.25330   0.95110   Biso      1.000     C          0.025411  
         C33       1.0000    0.62010   0.16420   0.94300   Biso      1.000     C          0.003698  
         C34       1.0000    0.68890   0.25820   0.91540   Biso      1.000     C          0.247131  
         C35       1.0000    0.88420   0.05240   0.67860   Biso      1.000     C          0.650078  
         C36       1.0000    0.90420   0.22550   0.51630   Biso      1.000     C          0.666355  
         C37       1.0000    0.90830   0.20380   0.60640   Biso      1.000     C          0.000841  
         C38       1.0000    0.92950   0.22630   0.71650   Biso      1.000     C          0.213154  
         C39       1.0000    0.15400   0.43030   0.54670   Biso      1.000     C          0.634474  
         C40       1.0000    0.19540   0.20380   0.53260   Biso      1.000     C          0.652317  
         C41       1.0000    0.12970   0.01630   0.77450   Biso      1.000     C          0.664468  
         C42       1.0000    0.24840   0.24670   0.54890   Biso      1.000     C          0.026302  
         C43       1.0000    0.36250   0.24180   0.58460   Biso      1.000     C          0.241947  
         C44       1.0000    0.11520   0.44760   0.82140   Biso      1.000     C          0.651528  
         C45       1.0000    0.14600   0.27450   0.98370   Biso      1.000     C          0.665336  
         C46       1.0000    0.21850   0.29620   0.89360   Biso      1.000     C          -0.000451           
         C47       1.0000    0.20690   0.36750   0.82830   Biso      1.000     C          -0.044071           
         C48       1.0000    0.37230   0.27370   0.78350   Biso      1.000     C          0.213637  
         C49       1.0000    0.70070   0.45330   0.93030   Biso      1.000     C          0.634292  
         C50       1.0000    0.72800   0.46740   0.70380   Biso      1.000     C          0.656438  
         C51       1.0000    0.79730   0.45110   0.74670   Biso      1.000     C          0.024726  
         C52       1.0000    0.78430   0.44300   0.83580   Biso      1.000     C          0.001204  
         C53       1.0000    0.94710   0.41540   0.74180   Biso      1.000     C          0.240715  
         C54       1.0000    0.22730   0.33580   0.55700   Biso      1.000     C          0.002165  
         C55       1.0000    0.88480   0.55240   0.17860   Biso      1.000     C          0.651528  
         C56       1.0000    0.03520   0.17170   0.86750   Biso      1.000     C          -0.043633           
         C57       1.0000    0.78150   0.70380   0.10640   Biso      1.000     C          -0.000451           
         C58       1.0000    0.85400   0.72550   0.01630   Biso      1.000     C          0.665336  
         C59       1.0000    0.35400   0.71650   0.27370   Biso      1.000     C          0.209951  
         C60       1.0000    0.42560   0.67170   0.36750   Biso      1.000     C          -0.044565           
         C61       1.0000    0.48530   0.60640   0.29620   Biso      1.000     C          -0.00084  
         C62       1.0000    0.57950   0.51630   0.27450   Biso      1.000     C          0.667223  
         C63       1.0000    0.43720   0.67860   0.44760   Biso      1.000     C          0.647488  
         C64       1.0000    0.39570   0.91540   0.24180   Biso      1.000     C          0.243721  
         C65       1.0000    0.43690   0.94300   0.33580   Biso      1.000     C          0.004003  
         C66       1.0000    0.60080   0.96740   0.20380   Biso      1.000     C          0.655225  
         C67       1.0000    0.41570   0.95330   0.43030   Biso      1.000     C          0.628758  
         C68       1.0000    0.84420   0.78350   0.22630   Biso      1.000     C          0.213849  
         C69       1.0000    0.50490   0.95110   0.24670   Biso      1.000     C          0.024305  
         C70       1.0000    0.88790   0.89360   0.20380   Biso      1.000     C          5.3e-05   
         C71       1.0000    0.79310   0.63250   0.17170   Biso      1.000     C          -0.044071           
         C72       1.0000    0.62770   0.72630   0.21650   Biso      1.000     C          0.213637  
         C73       1.0000    0.96480   0.82830   0.13250   Biso      1.000     C          -0.043633           
         C74       1.0000    0.27200   0.53260   0.29620   Biso      1.000     C          0.656438  
         C75       1.0000    0.20270   0.54890   0.25330   Biso      1.000     C          0.024726  
         C76       1.0000    0.29930   0.54670   0.06970   Biso      1.000     C          0.634292  
         C77       1.0000    0.05290   0.58460   0.25820   Biso      1.000     C          0.240715  
         C78       1.0000    0.06340   0.82140   0.05240   Biso      1.000     C          0.645328  
         C79       1.0000    0.87030   0.98370   0.22550   Biso      1.000     C          0.664468  
         C80       1.0000    0.21570   0.55700   0.16420   Biso      1.000     C          0.001204  
         H1        1.0000    0.06100   0.74600   0.24720   Biso      1.000     H          0.073545  
         H2        1.0000    0.30820   0.75280   0.24600   Biso      1.000     H          0.073157  
         H3        1.0000    0.36180   0.90060   0.21900   Biso      1.000     H          0.079034  
         H4        1.0000    0.80700   0.74720   0.25400   Biso      1.000     H          0.073786  
         H5        1.0000    0.98140   0.59940   0.28100   Biso      1.000     H          0.080581  
         H6        1.0000    0.58080   0.78100   0.40060   Biso      1.000     H          0.079103  
         H7        1.0000    0.26240   0.71900   0.09940   Biso      1.000     H          0.077336  
         H8        1.0000    0.55420   0.75400   0.25280   Biso      1.000     H          0.072781  
         H9        1.0000    0.63820   0.09940   0.78100   Biso      1.000     H          0.079034  
         H10       1.0000    0.69180   0.24720   0.75400   Biso      1.000     H          0.073157  
         H11       1.0000    0.93900   0.25400   0.75280   Biso      1.000     H          0.073545  
         H12       1.0000    0.41920   0.21900   0.59940   Biso      1.000     H          0.079103  
         H13       1.0000    0.44580   0.24600   0.74720   Biso      1.000     H          0.072781  
         H14       1.0000    0.73760   0.28100   0.90060   Biso      1.000     H          0.077336  
         H15       1.0000    0.01860   0.40060   0.71900   Biso      1.000     H          0.080581  
         H16       1.0000    0.19300   0.25280   0.74600   Biso      1.000     H          0.073786  
         N1        1.0000    0.08360   0.85270   0.25630   Biso      1.000     N          -0.46433  
         N2        1.0000    0.66510   0.81460   0.43280   Biso      1.000     N          -0.462737           
         N3        1.0000    0.69630   0.66850   0.42050   Biso      1.000     N          -0.500168           
         N4        1.0000    0.43790   0.63400   0.23720   Biso      1.000     N          -0.430439           
         N5        1.0000    0.67510   0.76280   0.13400   Biso      1.000     N          -0.431171           
         N6        1.0000    0.09790   0.56720   0.31460   Biso      1.000     N          -0.463925           
         N7        1.0000    0.11680   0.57950   0.16850   Biso      1.000     N          -0.497353           
         N8        1.0000    0.93630   0.75630   0.14730   Biso      1.000     N          -0.463452           
         N9        1.0000    0.80910   0.86600   0.26280   Biso      1.000     N          -0.432928           
         N10       1.0000    0.47970   0.93280   0.18540   Biso      1.000     N          -0.464835           
         N11       1.0000    0.36480   0.92050   0.33150   Biso      1.000     N          -0.499415           
         N12       1.0000    0.33990   0.74370   0.35270   Biso      1.000     N          -0.460169           
         N13       1.0000    0.07190   0.73720   0.36600   Biso      1.000     N          -0.4334   
         N14       1.0000    0.69260   0.64730   0.24370   Biso      1.000     N          -0.464556           
         N15       1.0000    0.52030   0.06720   0.81460   Biso      1.000     N          -0.464833           
         N16       1.0000    0.66010   0.25630   0.64730   Biso      1.000     N          -0.460169           
         N17       1.0000    0.28530   0.83150   0.07950   Biso      1.000     N          -0.500907           
         N18       1.0000    0.58750   0.31460   0.93280   Biso      1.000     N          -0.467803           
         N19       1.0000    0.71470   0.16850   0.92050   Biso      1.000     N          -0.500909           
         N20       1.0000    0.91640   0.14730   0.74370   Biso      1.000     N          -0.46433  
         N21       1.0000    0.92810   0.26280   0.63400   Biso      1.000     N          -0.4334   
         N22       1.0000    0.33490   0.18540   0.56720   Biso      1.000     N          -0.462737           
         N23       1.0000    0.56210   0.36600   0.76280   Biso      1.000     N          -0.430439           
         N24       1.0000    0.30370   0.33150   0.57950   Biso      1.000     N          -0.500168           
         N25       1.0000    0.32490   0.23720   0.86600   Biso      1.000     N          -0.431171           
         N26       1.0000    0.90210   0.43280   0.68540   Biso      1.000     N          -0.463925           
         N27       1.0000    0.88320   0.42050   0.83150   Biso      1.000     N          -0.497353           
         N28       1.0000    0.06370   0.24370   0.85270   Biso      1.000     N          -0.463452           
         N29       1.0000    0.19090   0.13400   0.73720   Biso      1.000     N          -0.432928           
         N30       1.0000    0.63520   0.07950   0.66850   Biso      1.000     N          -0.499417           
         N31       1.0000    0.30740   0.35270   0.75630   Biso      1.000     N          -0.464556           
         N32       1.0000    0.41250   0.68540   0.06720   Biso      1.000     N          -0.467805           
         O1        1.0000    0.45410   0.94520   0.01320   Biso      1.000     O          -0.768337           
         O2        1.0000    0.65100   0.06740   0.50200   Biso      1.000     O          -0.644902           
         O3        1.0000    0.11530   0.81960   0.51780   Biso      1.000     O          -0.687041           
         O4        1.0000    0.14880   0.95510   0.37170   Biso      1.000     O          -0.654403           
         O5        1.0000    0.09970   0.00810   0.25730   Biso      1.000     O          -0.660701           
         O6        1.0000    0.61220   0.61760   0.04300   Biso      1.000     O          -0.616685           
         O7        1.0000    0.61370   0.75610   0.00650   Biso      1.000     O          -0.677041           
         O8        1.0000    0.06510   0.98220   0.81960   Biso      1.000     O          -0.685401           
         O9        1.0000    0.21830   0.97020   0.70720   Biso      1.000     O          -0.647627           
         O10       1.0000    0.28160   0.99800   0.06740   Biso      1.000     O          -0.645028           
         O11       1.0000    0.36690   0.51780   0.68040   Biso      1.000     O          -0.687021           
         O12       1.0000    0.47950   0.37170   0.54490   Biso      1.000     O          -0.653514           
         O13       1.0000    0.64300   0.25730   0.49190   Biso      1.000     O          -0.659556           
         O14       1.0000    0.34480   0.04300   0.88240   Biso      1.000     O          -0.617032           
         O15       1.0000    0.37980   0.00650   0.74390   Biso      1.000     O          -0.676507           
         O16       1.0000    0.53270   0.01320   0.55480   Biso      1.000     O          -0.766489           
         O17       1.0000    0.39570   0.52980   0.79280   Biso      1.000     O          -0.648565           
         O18       1.0000    0.89610   0.12830   0.95510   Biso      1.000     O          -0.653144           
         O19       1.0000    0.38630   0.24390   0.99350   Biso      1.000     O          -0.677042           
         O20       1.0000    0.77020   0.45700   0.61760   Biso      1.000     O          -0.618052           
         O21       1.0000    0.07450   0.70720   0.52980   Biso      1.000     O          -0.648334           
         O22       1.0000    0.72040   0.43260   0.99800   Biso      1.000     O          -0.646143           
         O23       1.0000    0.18850   0.20720   0.02980   Biso      1.000     O          -0.648462           
         O24       1.0000    0.04730   0.31960   0.01780   Biso      1.000     O          -0.685899           
         O25       1.0000    0.02440   0.45510   0.87170   Biso      1.000     O          -0.655606           
         O26       1.0000    0.13490   0.50810   0.75730   Biso      1.000     O          -0.661063           
         O27       1.0000    0.22720   0.11760   0.54300   Biso      1.000     O          -0.617046           
         O28       1.0000    0.12370   0.25610   0.50650   Biso      1.000     O          -0.674649           
         O29       1.0000    0.60070   0.48680   0.94520   Biso      1.000     O          -0.769221           
         O30       1.0000    0.08750   0.44520   0.51320   Biso      1.000     O          -0.768329           
         O31       1.0000    0.15300   0.49800   0.56740   Biso      1.000     O          -0.647626           
         O32       1.0000    0.92550   0.29280   0.47020   Biso      1.000     O          -0.648334           
         O33       1.0000    0.88470   0.18040   0.48220   Biso      1.000     O          -0.687041           
         O34       1.0000    0.85120   0.04490   0.62830   Biso      1.000     O          -0.654403           
         O35       1.0000    0.90030   0.99190   0.74270   Biso      1.000     O          -0.660701           
         O36       1.0000    0.38780   0.38240   0.95700   Biso      1.000     O          -0.616685           
         O37       1.0000    0.63020   0.49350   0.75610   Biso      1.000     O          -0.677402           
         O38       1.0000    0.89220   0.24270   0.00810   Biso      1.000     O          -0.658742           
         O39       1.0000    0.84700   0.50200   0.43260   Biso      1.000     O          -0.647626           
         O40       1.0000    0.71840   0.00200   0.93260   Biso      1.000     O          -0.645028           
         O41       1.0000    0.87630   0.74390   0.49350   Biso      1.000     O          -0.674649           
         O42       1.0000    0.54590   0.05480   0.98680   Biso      1.000     O          -0.768337           
         O43       1.0000    0.60430   0.47020   0.20720   Biso      1.000     O          -0.648565           
         O44       1.0000    0.63310   0.48220   0.31960   Biso      1.000     O          -0.687021           
         O45       1.0000    0.91250   0.55480   0.48680   Biso      1.000     O          -0.768329           
         O46       1.0000    0.35700   0.74270   0.50810   Biso      1.000     O          -0.659556           
         O47       1.0000    0.65520   0.95700   0.11760   Biso      1.000     O          -0.617032           
         O48       1.0000    0.62020   0.99350   0.25610   Biso      1.000     O          -0.676507           
         O49       1.0000    0.46730   0.98680   0.44520   Biso      1.000     O          -0.766489           
         O50       1.0000    0.34900   0.93260   0.49800   Biso      1.000     O          -0.644902           
         O51       1.0000    0.78170   0.02980   0.29280   Biso      1.000     O          -0.647627           
         O52       1.0000    0.93490   0.01780   0.18040   Biso      1.000     O          -0.685401           
         O53       1.0000    0.52050   0.62830   0.45510   Biso      1.000     O          -0.653514           
         O54       1.0000    0.10780   0.75730   0.99190   Biso      1.000     O          -0.658742           
         O55       1.0000    0.10390   0.87170   0.04490   Biso      1.000     O          -0.653144           
         O56       1.0000    0.77280   0.88240   0.45700   Biso      1.000     O          -0.617046           
         O57       1.0000    0.97560   0.54490   0.12830   Biso      1.000     O          -0.655606           
         O58       1.0000    0.95270   0.68040   0.98220   Biso      1.000     O          -0.685899           
         O59       1.0000    0.86510   0.49190   0.24270   Biso      1.000     O          -0.661063           
         O60       1.0000    0.27960   0.56740   0.00200   Biso      1.000     O          -0.646143           
         O61       1.0000    0.39930   0.51320   0.05480   Biso      1.000     O          -0.769221           
         O62       1.0000    0.36980   0.50650   0.24390   Biso      1.000     O          -0.677402           
         O63       1.0000    0.22980   0.54300   0.38240   Biso      1.000     O          -0.618052           
         O64       1.0000    0.81150   0.79280   0.97020   Biso      1.000     O          -0.648462           
         Tb1       1.0000    0.11640   0.96665   0.12033   Biso      1.000     Tb          2.012567  
         Tb2       1.0000    0.51185   0.52469   0.11309   Biso      1.000     Tb          2.009355  
         Tb3       1.0000    0.08305   0.62033   0.03335   Biso      1.000     Tb          2.011841  
         Tb4       1.0000    0.64963   0.97531   0.38691   Biso      1.000     Tb          2.009308  
         Tb5       1.0000    0.70338   0.53335   0.37967   Biso      1.000     Tb          2.012532  
         Tb6       1.0000    0.62494   0.88691   0.02469   Biso      1.000     Tb          2.009793  
         Tb7       1.0000    0.03654   0.61309   0.47531   Biso      1.000     Tb          2.010271  
         Tb8       1.0000    0.29662   0.46665   0.62033   Biso      1.000     Tb          2.012532  
         Tb9       1.0000    0.48815   0.47531   0.88691   Biso      1.000     Tb          2.009355  
         Tb10      1.0000    0.91695   0.37967   0.96665   Biso      1.000     Tb          2.011842  
         Tb11      1.0000    0.35037   0.02469   0.61309   Biso      1.000     Tb          2.009308  
         Tb12      1.0000    0.37506   0.11309   0.97531   Biso      1.000     Tb          2.009793  
         Tb13      1.0000    0.88360   0.03335   0.87967   Biso      1.000     Tb          2.012567  
         Tb14      1.0000    0.96346   0.38691   0.52469   Biso      1.000     Tb          2.010271  
         Tb15      1.0000    0.76327   0.12033   0.53335   Biso      1.000     Tb          2.012196  
         Tb16      1.0000    0.23673   0.87967   0.46665   Biso      1.000     Tb          2.012196 