
##########################################################################
#               Crystallographic Information Format file
#               Produced by PyCifRW module
#
#  This is a CIF file.  CIF has been adopted by the International
#  Union of Crystallography as the standard for data archiving and
#  transmission.
#
#  For information on this file format, follow the CIF links at
#  http://www.iucr.org
##########################################################################

data_image0

_cell_length_a                          15.873
_cell_length_b                          16.3062
_cell_length_c                          16.3062
_cell_angle_alpha                       76.2967
_cell_angle_beta                        60.875
_cell_angle_gamma                       60.875
_symmetry_space_group_name_H-M          'P 1'
_symmetry_int_tables_number             1
loop_
  _symmetry_equiv_pos_as_xyz
         'x, y, z' 
loop_
  _atom_site_label
  _atom_site_occupancy
  _atom_site_fract_x
  _atom_site_fract_y
  _atom_site_fract_z
  _atom_site_thermal_displace_type
  _atom_site_B_iso_or_equiv
  _atom_site_type_symbol
  _atom_site_charge
         C1        1.0000    0.70920   0.82710   0.36690   Biso      1.000     C          -0.036434           
         C2        1.0000    0.81090   0.08330   0.74010   Biso      1.000     C          0.24094   
         C3        1.0000    0.61680   0.31930   0.94770   Biso      1.000     C          0.654881  
         C4        1.0000    0.59480   0.48300   0.77460   Biso      1.000     C          0.665245  
         C5        1.0000    0.59060   0.39280   0.79560   Biso      1.000     C          -0.00144  
         C6        1.0000    0.59680   0.32710   0.86690   Biso      1.000     C          -0.037491           
         C7        1.0000    0.57040   0.28040   0.77340   Biso      1.000     C          0.209047  
         C8        1.0000    0.80190   0.06880   0.54440   Biso      1.000     C          0.633479  
         C9        1.0000    0.87650   0.05550   0.83750   Biso      1.000     C          0.004006  
         C10       1.0000    0.77490   0.29380   0.53180   Biso      1.000     C          0.654878  
         C11       1.0000    0.71400   0.16250   0.55550   Biso      1.000     C          0.003677  
         C12       1.0000    0.55100   0.25990   0.58330   Biso      1.000     C          0.239988  
         C13       1.0000    0.56450   0.05230   0.81930   Biso      1.000     C          0.650734  
         C14       1.0000    0.36940   0.22540   0.98300   Biso      1.000     C          0.664279  
         C15       1.0000    0.38620   0.20440   0.89280   Biso      1.000     C          0.000396  
         C16       1.0000    0.46370   0.13310   0.82710   Biso      1.000     C          -0.035418           
         C17       1.0000    0.34380   0.22660   0.78040   Biso      1.000     C          0.209528  
         C18       1.0000    0.70180   0.25410   0.54870   Biso      1.000     C          0.012329  
         C19       1.0000    0.91510   0.43120   0.95560   Biso      1.000     C          0.630089  
         C20       1.0000    0.95590   0.04870   0.74590   Biso      1.000     C          0.010682  
         C21       1.0000    0.87070   0.04440   0.93120   Biso      1.000     C          0.630017  
         C22       1.0000    0.10580   0.75990   0.08330   Biso      1.000     C          0.245335  
         C23       1.0000    0.06390   0.55230   0.31930   Biso      1.000     C          0.654101  
         C24       1.0000    0.92220   0.72540   0.48300   Biso      1.000     C          0.662288  
         C25       1.0000    0.01660   0.70440   0.39280   Biso      1.000     C          -0.003394           
         C26       1.0000    0.07610   0.63310   0.32710   Biso      1.000     C          -0.037682           
         C27       1.0000    0.14920   0.72660   0.28040   Biso      1.000     C          0.213333  
         C28       1.0000    0.34630   0.45560   0.56880   Biso      1.000     C          0.626057  
         C29       1.0000    0.06870   0.03180   0.70620   Biso      1.000     C          0.654991  
         C30       1.0000    0.30670   0.46820   0.79380   Biso      1.000     C          0.656427  
         C31       1.0000    0.26950   0.44450   0.66250   Biso      1.000     C          0.004345  
         C32       1.0000    0.13430   0.41670   0.75990   Biso      1.000     C          0.238198  
         C33       1.0000    0.38380   0.18070   0.55230   Biso      1.000     C          0.651577  
         C34       1.0000    0.35240   0.01700   0.72540   Biso      1.000     C          0.665222  
         C35       1.0000    0.27900   0.10720   0.70440   Biso      1.000     C          -0.002375           
         C36       1.0000    0.29080   0.17290   0.63310   Biso      1.000     C          -0.036434           
         C37       1.0000    0.12420   0.21960   0.72660   Biso      1.000     C          0.212212  
         C38       1.0000    0.25050   0.45130   0.75410   Biso      1.000     C          0.012024  
         C39       1.0000    0.10050   0.20620   0.96820   Biso      1.000     C          0.659573  
         C40       1.0000    0.00460   0.24590   0.95130   Biso      1.000     C          0.010912  
         C41       1.0000    0.93200   0.33750   0.94450   Biso      1.000     C          0.006772  
         C42       1.0000    0.40520   0.51700   0.22540   Biso      1.000     C          0.665245  
         C43       1.0000    0.38320   0.68070   0.05230   Biso      1.000     C          0.654881  
         C44       1.0000    0.18910   0.91670   0.25990   Biso      1.000     C          0.24094   
         C45       1.0000    0.12350   0.94450   0.16250   Biso      1.000     C          0.004006  
         C46       1.0000    0.04410   0.95130   0.25410   Biso      1.000     C          0.010682  
         C47       1.0000    0.93130   0.96820   0.29380   Biso      1.000     C          0.654991  
         C48       1.0000    0.12930   0.95560   0.06880   Biso      1.000     C          0.630017  
         C49       1.0000    0.40940   0.60720   0.20440   Biso      1.000     C          -0.00144  
         C50       1.0000    0.87580   0.78040   0.27340   Biso      1.000     C          0.212212  
         C51       1.0000    0.64760   0.98300   0.27460   Biso      1.000     C          0.665223  
         C52       1.0000    0.61620   0.81930   0.44770   Biso      1.000     C          0.651577  
         C53       1.0000    0.86570   0.58330   0.24010   Biso      1.000     C          0.238198  
         C54       1.0000    0.73050   0.55550   0.33750   Biso      1.000     C          0.004345  
         C55       1.0000    0.74950   0.54870   0.24590   Biso      1.000     C          0.012024  
         C56       1.0000    0.69330   0.53180   0.20620   Biso      1.000     C          0.656426  
         C57       1.0000    0.65370   0.54440   0.43120   Biso      1.000     C          0.626057  
         C58       1.0000    0.72100   0.89280   0.29560   Biso      1.000     C          -0.002375           
         C59       1.0000    0.40320   0.67290   0.13310   Biso      1.000     C          -0.037491           
         C60       1.0000    0.42960   0.71960   0.22660   Biso      1.000     C          0.209047  
         C61       1.0000    0.19810   0.93120   0.45560   Biso      1.000     C          0.633479  
         C62       1.0000    0.89420   0.24010   0.91670   Biso      1.000     C          0.245335  
         C63       1.0000    0.93610   0.44770   0.68070   Biso      1.000     C          0.654101  
         C64       1.0000    0.07780   0.27460   0.51700   Biso      1.000     C          0.662289  
         C65       1.0000    0.98340   0.29560   0.60720   Biso      1.000     C          -0.003394           
         C66       1.0000    0.92390   0.36690   0.67290   Biso      1.000     C          -0.037682           
         C67       1.0000    0.85080   0.27340   0.71960   Biso      1.000     C          0.213333  
         C68       1.0000    0.89950   0.79380   0.03180   Biso      1.000     C          0.659573  
         C69       1.0000    0.08490   0.56880   0.04440   Biso      1.000     C          0.630089  
         C70       1.0000    0.65620   0.77340   0.21960   Biso      1.000     C          0.209528  
         C71       1.0000    0.53630   0.86690   0.17290   Biso      1.000     C          -0.035417           
         C72       1.0000    0.61380   0.79560   0.10720   Biso      1.000     C          0.000396  
         C73       1.0000    0.63060   0.77460   0.01700   Biso      1.000     C          0.664278  
         C74       1.0000    0.43550   0.94770   0.18070   Biso      1.000     C          0.650733  
         C75       1.0000    0.44900   0.74010   0.41670   Biso      1.000     C          0.239988  
         C76       1.0000    0.28600   0.83750   0.44450   Biso      1.000     C          0.003677  
         C77       1.0000    0.29820   0.74590   0.45130   Biso      1.000     C          0.012329  
         C78       1.0000    0.22510   0.70620   0.46820   Biso      1.000     C          0.654878  
         C79       1.0000    0.06800   0.66250   0.05550   Biso      1.000     C          0.006772  
         C80       1.0000    0.99540   0.75410   0.04870   Biso      1.000     C          0.010912  
         Er1       1.0000    0.73569   0.46531   0.88016   Biso      1.000     Er          2.019843  
         Er2       1.0000    0.26431   0.53469   0.11984   Biso      1.000     Er          2.019844  
         Er3       1.0000    0.01111   0.11265   0.52625   Biso      1.000     Er          2.008032  
         Er4       1.0000    0.58115   0.03469   0.61984   Biso      1.000     Er          2.019043  
         Er5       1.0000    0.15001   0.38735   0.97375   Biso      1.000     Er          2.009774  
         Er6       1.0000    0.61584   0.11984   0.96532   Biso      1.000     Er          2.018619  
         Er7       1.0000    0.53736   0.47375   0.61265   Biso      1.000     Er          2.007755  
         Er8       1.0000    0.20100   0.38016   0.53468   Biso      1.000     Er          2.018239  
         Er9       1.0000    0.12376   0.02625   0.88735   Biso      1.000     Er          2.009215  
         Er10      1.0000    0.98889   0.88735   0.47375   Biso      1.000     Er          2.008033  
         Er11      1.0000    0.41885   0.96531   0.38016   Biso      1.000     Er          2.019043  
         Er12      1.0000    0.84999   0.61265   0.02625   Biso      1.000     Er          2.009774  
         Er13      1.0000    0.38416   0.88016   0.03468   Biso      1.000     Er          2.018619  
         Er14      1.0000    0.46264   0.52625   0.38735   Biso      1.000     Er          2.007755  
         Er15      1.0000    0.79900   0.61984   0.46532   Biso      1.000     Er          2.018238  
         Er16      1.0000    0.87624   0.97375   0.11265   Biso      1.000     Er          2.009215  
         H1        1.0000    0.92430   0.59640   0.21660   Biso      1.000     H          0.079834  
         H2        1.0000    0.94960   0.74390   0.24590   Biso      1.000     H          0.07537   
         H3        1.0000    0.85910   0.21660   0.90360   Biso      1.000     H          0.077794  
         H4        1.0000    0.80450   0.24590   0.75610   Biso      1.000     H          0.075555  
         H5        1.0000    0.23730   0.90360   0.28340   Biso      1.000     H          0.07933   
         H6        1.0000    0.43940   0.75610   0.25410   Biso      1.000     H          0.076148  
         H7        1.0000    0.52070   0.71660   0.40360   Biso      1.000     H          0.079939  
         H8        1.0000    0.14090   0.78340   0.09640   Biso      1.000     H          0.077793  
         H9        1.0000    0.19550   0.75410   0.24390   Biso      1.000     H          0.075555  
         H10       1.0000    0.69350   0.74590   0.25610   Biso      1.000     H          0.076865  
         H11       1.0000    0.05040   0.25610   0.75410   Biso      1.000     H          0.07537   
         H12       1.0000    0.76270   0.09640   0.71660   Biso      1.000     H          0.07933   
         H13       1.0000    0.56060   0.24390   0.74590   Biso      1.000     H          0.076148  
         H14       1.0000    0.47930   0.28340   0.59640   Biso      1.000     H          0.079939  
         H15       1.0000    0.30650   0.25410   0.74390   Biso      1.000     H          0.076865  
         H16       1.0000    0.07570   0.40360   0.78340   Biso      1.000     H          0.079834  
         N1        1.0000    0.13690   0.66810   0.08010   Biso      1.000     N          -0.500391           
         N2        1.0000    0.40300   0.68460   0.43340   Biso      1.000     N          -0.4585   
         N3        1.0000    0.02100   0.81540   0.06660   Biso      1.000     N          -0.460415           
         N4        1.0000    0.68960   0.73640   0.13820   Biso      1.000     N          -0.43073  
         N5        1.0000    0.56460   0.85340   0.24440   Biso      1.000     N          -0.463932           
         N6        1.0000    0.38510   0.83190   0.41990   Biso      1.000     N          -0.496678           
         N7        1.0000    0.42600   0.63820   0.26360   Biso      1.000     N          -0.429693           
         N8        1.0000    0.83640   0.56660   0.18460   Biso      1.000     N          -0.456243           
         N9        1.0000    0.21700   0.91990   0.16810   Biso      1.000     N          -0.496326           
         N10       1.0000    0.08760   0.93340   0.31540   Biso      1.000     N          -0.457853           
         N11       1.0000    0.82780   0.86180   0.23640   Biso      1.000     N          -0.42812  
         N12       1.0000    0.80900   0.75560   0.35340   Biso      1.000     N          -0.46356  
         N13       1.0000    0.80500   0.58010   0.33190   Biso      1.000     N          -0.495312           
         N14       1.0000    0.16240   0.64660   0.25560   Biso      1.000     N          -0.462244           
         N15       1.0000    0.41800   0.74440   0.14660   Biso      1.000     N          -0.460956           
         N16       1.0000    0.06420   0.76360   0.36180   Biso      1.000     N          -0.429535           
         N17       1.0000    0.16360   0.43340   0.81540   Biso      1.000     N          -0.456243           
         N18       1.0000    0.19500   0.41990   0.66810   Biso      1.000     N          -0.495312           
         N19       1.0000    0.83760   0.35340   0.74440   Biso      1.000     N          -0.462244           
         N20       1.0000    0.86310   0.33190   0.91990   Biso      1.000     N          -0.500391           
         N21       1.0000    0.97900   0.18460   0.93340   Biso      1.000     N          -0.460415           
         N22       1.0000    0.31040   0.26360   0.86180   Biso      1.000     N          -0.43073  
         N23       1.0000    0.43540   0.14660   0.75560   Biso      1.000     N          -0.463932           
         N24       1.0000    0.61490   0.16810   0.58010   Biso      1.000     N          -0.496678           
         N25       1.0000    0.93580   0.23640   0.63820   Biso      1.000     N          -0.429535           
         N26       1.0000    0.57400   0.36180   0.73640   Biso      1.000     N          -0.429693           
         N27       1.0000    0.58200   0.25560   0.85340   Biso      1.000     N          -0.460956           
         N28       1.0000    0.78300   0.08010   0.83190   Biso      1.000     N          -0.496326           
         N29       1.0000    0.91240   0.06660   0.68460   Biso      1.000     N          -0.457853           
         N30       1.0000    0.17220   0.13820   0.76360   Biso      1.000     N          -0.42812  
         N31       1.0000    0.19100   0.24440   0.64660   Biso      1.000     N          -0.463561           
         N32       1.0000    0.59700   0.31540   0.56660   Biso      1.000     N          -0.4585   
         O1        1.0000    0.27010   0.61840   0.45620   Biso      1.000     O          -0.627084           
         O2        1.0000    0.39120   0.00560   0.24560   Biso      1.000     O          -0.643852           
         O3        1.0000    0.39570   0.95580   0.12760   Biso      1.000     O          -0.673216           
         O4        1.0000    0.56410   0.81900   0.98280   Biso      1.000     O          -0.688679           
         O5        1.0000    0.72000   0.70370   0.97170   Biso      1.000     O          -0.654151           
         O6        1.0000    0.15420   0.50030   0.06690   Biso      1.000     O          -0.666513           
         O7        1.0000    0.84470   0.88160   0.04380   Biso      1.000     O          -0.62797  
         O8        1.0000    0.87900   0.74240   0.00560   Biso      1.000     O          -0.674548           
         O9        1.0000    0.14240   0.49440   0.25440   Biso      1.000     O          -0.644533           
         O10       1.0000    0.97910   0.54420   0.37240   Biso      1.000     O          -0.676114           
         O11       1.0000    0.86590   0.68100   0.51720   Biso      1.000     O          -0.686123           
         O12       1.0000    0.12700   0.75760   0.49440   Biso      1.000     O          -0.670677           
         O13       1.0000    0.03530   0.55290   0.01210   Biso      1.000     O          -0.74219  
         O14       1.0000    0.10030   0.94710   0.48790   Biso      1.000     O          -0.741593           
         O15       1.0000    0.04740   0.98790   0.05290   Biso      1.000     O          -0.741321           
         O16       1.0000    0.42370   0.47170   0.29630   Biso      1.000     O          -0.654347           
         O17       1.0000    0.38310   0.48280   0.18100   Biso      1.000     O          -0.688176           
         O18       1.0000    0.35150   0.62760   0.04420   Biso      1.000     O          -0.676108           
         O19       1.0000    0.39680   0.74560   0.99440   Biso      1.000     O          -0.644604           
         O20       1.0000    0.88850   0.95620   0.38160   Biso      1.000     O          -0.626789           
         O21       1.0000    0.88460   0.99440   0.24240   Biso      1.000     O          -0.670584           
         O22       1.0000    0.89540   0.79630   0.52830   Biso      1.000     O          -0.653171           
         O23       1.0000    0.22110   0.93310   0.00030   Biso      1.000     O          -0.666853           
         O24       1.0000    0.69170   0.02830   0.20370   Biso      1.000     O          -0.65468  
         O25       1.0000    0.54690   0.01720   0.31900   Biso      1.000     O          -0.688443           
         O26       1.0000    0.52330   0.87240   0.45580   Biso      1.000     O          -0.675638           
         O27       1.0000    0.63680   0.75440   0.50560   Biso      1.000     O          -0.642771           
         O28       1.0000    0.72630   0.54380   0.11840   Biso      1.000     O          -0.627968           
         O29       1.0000    0.62140   0.50560   0.25760   Biso      1.000     O          -0.671603           
         O30       1.0000    0.22140   0.99970   0.43310   Biso      1.000     O          -0.669819           
         O31       1.0000    0.34550   0.43310   0.50030   Biso      1.000     O          -0.666101           
         O32       1.0000    0.10460   0.20370   0.47170   Biso      1.000     O          -0.653171           
         O33       1.0000    0.37860   0.49440   0.74240   Biso      1.000     O          -0.671603           
         O34       1.0000    0.58820   0.51210   0.44710   Biso      1.000     O          -0.737975           
         O35       1.0000    0.13410   0.31900   0.48280   Biso      1.000     O          -0.686124           
         O36       1.0000    0.02090   0.45580   0.62760   Biso      1.000     O          -0.676115           
         O37       1.0000    0.85760   0.50560   0.74560   Biso      1.000     O          -0.644533           
         O38       1.0000    0.15530   0.11840   0.95620   Biso      1.000     O          -0.627969           
         O39       1.0000    0.12100   0.25760   0.99440   Biso      1.000     O          -0.674548           
         O40       1.0000    0.96470   0.44710   0.98790   Biso      1.000     O          -0.74219  
         O41       1.0000    0.84580   0.49970   0.93310   Biso      1.000     O          -0.666513           
         O42       1.0000    0.28000   0.29630   0.02830   Biso      1.000     O          -0.654151           
         O43       1.0000    0.43590   0.18100   0.01720   Biso      1.000     O          -0.68868  
         O44       1.0000    0.60430   0.04420   0.87240   Biso      1.000     O          -0.673216           
         O45       1.0000    0.60880   0.99440   0.75440   Biso      1.000     O          -0.643853           
         O46       1.0000    0.72990   0.38160   0.54380   Biso      1.000     O          -0.627084           
         O47       1.0000    0.87300   0.24240   0.50560   Biso      1.000     O          -0.670677           
         O48       1.0000    0.89970   0.05290   0.51210   Biso      1.000     O          -0.741592           
         O49       1.0000    0.77860   0.00030   0.56690   Biso      1.000     O          -0.669819           
         O50       1.0000    0.57630   0.52830   0.70370   Biso      1.000     O          -0.654347           
         O51       1.0000    0.61690   0.51720   0.81900   Biso      1.000     O          -0.688175           
         O52       1.0000    0.64850   0.37240   0.95580   Biso      1.000     O          -0.676107           
         O53       1.0000    0.60320   0.25440   0.00560   Biso      1.000     O          -0.644603           
         O54       1.0000    0.11150   0.04380   0.61840   Biso      1.000     O          -0.626789           
         O55       1.0000    0.11540   0.00560   0.75760   Biso      1.000     O          -0.670584           
         O56       1.0000    0.95260   0.01210   0.94710   Biso      1.000     O          -0.741321           
         O57       1.0000    0.77890   0.06690   0.99970   Biso      1.000     O          -0.666853           
         O58       1.0000    0.30830   0.97170   0.79630   Biso      1.000     O          -0.65468  
         O59       1.0000    0.45310   0.98280   0.68100   Biso      1.000     O          -0.688442           
         O60       1.0000    0.47670   0.12760   0.54420   Biso      1.000     O          -0.675638           
         O61       1.0000    0.36320   0.24560   0.49440   Biso      1.000     O          -0.642771           
         O62       1.0000    0.27370   0.45620   0.88160   Biso      1.000     O          -0.627968           
         O63       1.0000    0.41180   0.48790   0.55290   Biso      1.000     O          -0.737975           
         O64       1.0000    0.65450   0.56690   0.49970   Biso      1.000     O          -0.666101 