
##########################################################################
#               Crystallographic Information Format file
#               Produced by PyCifRW module
#
#  This is a CIF file.  CIF has been adopted by the International
#  Union of Crystallography as the standard for data archiving and
#  transmission.
#
#  For information on this file format, follow the CIF links at
#  http://www.iucr.org
##########################################################################

data_image0

_cell_length_a                          8.9317
_cell_length_b                          12.1579
_cell_length_c                          16.9148
_cell_angle_alpha                       90
_cell_angle_beta                        90
_cell_angle_gamma                       108.877
_symmetry_space_group_name_H-M          'P 1'
_symmetry_int_tables_number             1
loop_
  _symmetry_equiv_pos_as_xyz
         'x, y, z' 
loop_
  _atom_site_label
  _atom_site_occupancy
  _atom_site_fract_x
  _atom_site_fract_y
  _atom_site_fract_z
  _atom_site_thermal_displace_type
  _atom_site_B_iso_or_equiv
  _atom_site_type_symbol
  _atom_site_charge
         C1        1.0000    0.12450   0.69410   0.07602   Biso      1.000     C          -0.167783           
         C2        1.0000    0.22940   0.19720   0.98640   Biso      1.000     C          -0.17833800000000002          
         C3        1.0000    0.34270   0.14630   0.02696   Biso      1.000     C          0.64262   
         C4        1.0000    0.44530   0.11220   0.29848   Biso      1.000     C          0.6707989999999999  
         C5        1.0000    0.60190   0.20850   0.29991   Biso      1.000     C          -0.175257           
         C6        1.0000    0.26800   0.79990   0.06075   Biso      1.000     C          0.68267   
         C7        1.0000    0.77060   0.80280   0.01360   Biso      1.000     C          -0.178339           
         C8        1.0000    0.76680   0.38940   0.13635   Biso      1.000     C          -0.180374           
         C9        1.0000    0.88190   0.49440   0.11662   Biso      1.000     C          -0.22635300000000003          
         C10       1.0000    0.00460   0.54450   0.16856   Biso      1.000     C          0.24460900000000002           
         C11       1.0000    0.01110   0.49190   0.24025   Biso      1.000     C          -0.188823           
         C12       1.0000    0.89710   0.38720   0.25995   Biso      1.000     C          -0.19083  
         C13       1.0000    0.77720   0.33641   0.20683   Biso      1.000     C          0.236144  
         C14       1.0000    0.00780   0.59820   0.45660   Biso      1.000     C          -0.200177           
         C15       1.0000    0.12060   0.50120   0.55030   Biso      1.000     C          -0.19858299999999998          
         C16       1.0000    0.13080   0.60030   0.50730   Biso      1.000     C          0.24296399999999999           
         C17       1.0000    0.27060   0.80280   0.48640   Biso      1.000     C          -0.178339           
         C18       1.0000    0.15730   0.85370   0.52696   Biso      1.000     C          0.64262   
         C19       1.0000    0.05470   0.88780   0.79848   Biso      1.000     C          0.6707989999999999  
         C20       1.0000    0.89810   0.79150   0.79991   Biso      1.000     C          -0.175257           
         C21       1.0000    0.23200   0.20010   0.56075   Biso      1.000     C          0.68267   
         C22       1.0000    0.37550   0.30590   0.57602   Biso      1.000     C          -0.167784           
         C23       1.0000    0.73320   0.61060   0.63635   Biso      1.000     C          -0.180374           
         C24       1.0000    0.61810   0.50560   0.61662   Biso      1.000     C          -0.22635300000000003          
         C25       1.0000    0.36920   0.39970   0.00730   Biso      1.000     C          0.24295999999999998           
         C26       1.0000    0.49540   0.45550   0.66856   Biso      1.000     C          0.24460900000000002           
         C27       1.0000    0.37940   0.49880   0.05030   Biso      1.000     C          -0.198581           
         C28       1.0000    0.27720   0.33641   0.29317   Biso      1.000     C          0.23613800000000001           
         C29       1.0000    0.39810   0.79150   0.70009   Biso      1.000     C          -0.175257           
         C30       1.0000    0.73200   0.20010   0.93925   Biso      1.000     C          0.68267   
         C31       1.0000    0.87550   0.30590   0.92398   Biso      1.000     C          -0.167783           
         C32       1.0000    0.23320   0.61060   0.86365   Biso      1.000     C          -0.180374           
         C33       1.0000    0.11810   0.50560   0.88338   Biso      1.000     C          -0.22635300000000003          
         C34       1.0000    0.99540   0.45550   0.83144   Biso      1.000     C          0.24460900000000002           
         C35       1.0000    0.98890   0.50810   0.75975   Biso      1.000     C          -0.188823           
         C36       1.0000    0.10290   0.61280   0.74005   Biso      1.000     C          -0.19083  
         C37       1.0000    0.22280   0.66359   0.79317   Biso      1.000     C          0.236144  
         C38       1.0000    0.99220   0.40180   0.54340   Biso      1.000     C          -0.20017100000000002          
         C39       1.0000    0.87940   0.49880   0.44970   Biso      1.000     C          -0.198578           
         C40       1.0000    0.86920   0.39970   0.49270   Biso      1.000     C          0.242963  
         C41       1.0000    0.72940   0.19720   0.51360   Biso      1.000     C          -0.17833800000000002          
         C42       1.0000    0.84270   0.14630   0.47304   Biso      1.000     C          0.64262   
         C43       1.0000    0.94530   0.11220   0.20152   Biso      1.000     C          0.6707989999999999  
         C44       1.0000    0.10190   0.20850   0.20009   Biso      1.000     C          -0.175257           
         C45       1.0000    0.76800   0.79990   0.43925   Biso      1.000     C          0.68267   
         C46       1.0000    0.62450   0.69410   0.42398   Biso      1.000     C          -0.167784           
         C47       1.0000    0.26680   0.38940   0.36365   Biso      1.000     C          -0.180369           
         C48       1.0000    0.38190   0.49440   0.38338   Biso      1.000     C          -0.226354           
         C49       1.0000    0.50460   0.54450   0.33144   Biso      1.000     C          0.24460900000000002           
         C50       1.0000    0.51110   0.49190   0.25975   Biso      1.000     C          -0.188824           
         C51       1.0000    0.39710   0.38720   0.24005   Biso      1.000     C          -0.190827           
         C52       1.0000    0.49220   0.40180   0.95660   Biso      1.000     C          -0.200175           
         C53       1.0000    0.48890   0.50810   0.74025   Biso      1.000     C          -0.188823           
         C54       1.0000    0.60290   0.61280   0.75995   Biso      1.000     C          -0.19083  
         C55       1.0000    0.72280   0.66359   0.70683   Biso      1.000     C          0.236144  
         C56       1.0000    0.50780   0.59820   0.04340   Biso      1.000     C          -0.20017200000000002          
         C57       1.0000    0.62060   0.50120   0.94970   Biso      1.000     C          -0.198578           
         C58       1.0000    0.63080   0.60030   0.99270   Biso      1.000     C          0.24296399999999999           
         C59       1.0000    0.55470   0.88780   0.70152   Biso      1.000     C          0.6707989999999999  
         C60       1.0000    0.65730   0.85370   0.97304   Biso      1.000     C          0.64262   
         H1        1.0000    0.32410   0.81310   0.66660   Biso      1.000     H          0.128599  
         H2        1.0000    0.12110   0.63500   0.03690   Biso      1.000     H          0.110957  
         H3        1.0000    0.68350   0.35550   0.10190   Biso      1.000     H          0.129299  
         H4        1.0000    0.87600   0.53050   0.06880   Biso      1.000     H          0.11671600000000001           
         H5        1.0000    0.09240   0.52680   0.27560   Biso      1.000     H          0.13017   
         H6        1.0000    0.90140   0.35180   0.30820   Biso      1.000     H          0.137718  
         H7        1.0000    0.00900   0.66100   0.42700   Biso      1.000     H          0.125376  
         H8        1.0000    0.19900   0.50300   0.57900   Biso      1.000     H          0.135533  
         H9        1.0000    0.24490   0.79370   0.43050   Biso      1.000     H          0.11849100000000001           
         H10       1.0000    0.37720   0.85700   0.49130   Biso      1.000     H          0.14836400000000002           
         H11       1.0000    0.02950   0.71550   0.07000   Biso      1.000     H          0.117834  
         H12       1.0000    0.91180   0.72120   0.82110   Biso      1.000     H          0.12628599999999998           
         H13       1.0000    0.47050   0.28450   0.57000   Biso      1.000     H          0.117834  
         H14       1.0000    0.37890   0.36500   0.53690   Biso      1.000     H          0.110957  
         H15       1.0000    0.81650   0.64450   0.60190   Biso      1.000     H          0.129299  
         H16       1.0000    0.62400   0.46950   0.56880   Biso      1.000     H          0.11671600000000001           
         H17       1.0000    0.40760   0.47320   0.77560   Biso      1.000     H          0.13017   
         H18       1.0000    0.59860   0.64820   0.80820   Biso      1.000     H          0.137718  
         H19       1.0000    0.74490   0.79370   0.06950   Biso      1.000     H          0.11849000000000001           
         H20       1.0000    0.69900   0.50300   0.92100   Biso      1.000     H          0.135533  
         H21       1.0000    0.50900   0.66100   0.07300   Biso      1.000     H          0.125375  
         H22       1.0000    0.82410   0.81310   0.83340   Biso      1.000     H          0.128599  
         H23       1.0000    0.67590   0.18690   0.33340   Biso      1.000     H          0.128599  
         H24       1.0000    0.58820   0.27880   0.32110   Biso      1.000     H          0.12628599999999998           
         H25       1.0000    0.12280   0.14300   0.99130   Biso      1.000     H          0.14836300000000002           
         H26       1.0000    0.97050   0.28450   0.93000   Biso      1.000     H          0.117834  
         H27       1.0000    0.87890   0.36500   0.96310   Biso      1.000     H          0.110957  
         H28       1.0000    0.31650   0.64450   0.89810   Biso      1.000     H          0.129299  
         H29       1.0000    0.12400   0.46950   0.93120   Biso      1.000     H          0.11671600000000001           
         H30       1.0000    0.90760   0.47320   0.72440   Biso      1.000     H          0.13017   
         H31       1.0000    0.09860   0.64820   0.69180   Biso      1.000     H          0.137718  
         H32       1.0000    0.99100   0.33900   0.57300   Biso      1.000     H          0.125375  
         H33       1.0000    0.80100   0.49700   0.42100   Biso      1.000     H          0.135533  
         H34       1.0000    0.75510   0.20630   0.56950   Biso      1.000     H          0.11849000000000001           
         H35       1.0000    0.62280   0.14300   0.50870   Biso      1.000     H          0.14836400000000002           
         H36       1.0000    0.08820   0.27880   0.17890   Biso      1.000     H          0.12628699999999998           
         H37       1.0000    0.17590   0.18690   0.16660   Biso      1.000     H          0.128599  
         H38       1.0000    0.52950   0.71550   0.43000   Biso      1.000     H          0.117834  
         H39       1.0000    0.62110   0.63500   0.46310   Biso      1.000     H          0.110957  
         H40       1.0000    0.18350   0.35550   0.39810   Biso      1.000     H          0.129298  
         H41       1.0000    0.37600   0.53050   0.43120   Biso      1.000     H          0.11671600000000001           
         H42       1.0000    0.59240   0.52680   0.22440   Biso      1.000     H          0.13017   
         H43       1.0000    0.40140   0.35180   0.19180   Biso      1.000     H          0.137718  
         H44       1.0000    0.49100   0.33900   0.92700   Biso      1.000     H          0.125375  
         H45       1.0000    0.87720   0.85700   0.00870   Biso      1.000     H          0.14836400000000002           
         H46       1.0000    0.25510   0.20630   0.93050   Biso      1.000     H          0.11849100000000001           
         H47       1.0000    0.41180   0.72120   0.67890   Biso      1.000     H          0.12628599999999998           
         H48       1.0000    0.30100   0.49700   0.07900   Biso      1.000     H          0.135533  
         La1       1.0000    0.92996   0.95133   0.61635   Biso      1.000     La          1.926795  
         La2       1.0000    0.42996   0.95133   0.88365   Biso      1.000     La          1.926795  
         La3       1.0000    0.07004   0.04867   0.38365   Biso      1.000     La          1.926795  
         La4       1.0000    0.57004   0.04867   0.11635   Biso      1.000     La          1.926795  
         O1        1.0000    0.86620   0.06022   0.50573   Biso      1.000     O          -0.696498           
         O2        1.0000    0.90330   0.18540   0.40857   Biso      1.000     O          -0.567958           
         O3        1.0000    0.73330   0.30666   0.48211   Biso      1.000     O          -0.196261           
         O4        1.0000    0.91020   0.04807   0.26163   Biso      1.000     O          -0.640702           
         O5        1.0000    0.62610   0.64738   0.34750   Biso      1.000     O          -0.19377  
         O6        1.0000    0.83920   0.86105   0.38302   Biso      1.000     O          -0.6272989999999999           
         O7        1.0000    0.79830   0.81724   0.51101   Biso      1.000     O          -0.6372909999999999           
         O8        1.0000    0.33790   0.77133   0.77927   Biso      1.000     O          -0.267112           
         O9        1.0000    0.16210   0.22867   0.27927   Biso      1.000     O          -0.267112           
         O10       1.0000    0.63380   0.93978   0.00573   Biso      1.000     O          -0.696498           
         O11       1.0000    0.59670   0.81460   0.90857   Biso      1.000     O          -0.567958           
         O12       1.0000    0.76670   0.69334   0.98211   Biso      1.000     O          -0.196261           
         O13       1.0000    0.58980   0.95193   0.76163   Biso      1.000     O          -0.640702           
         O14       1.0000    0.87390   0.35262   0.84750   Biso      1.000     O          -0.193771           
         O15       1.0000    0.66080   0.13895   0.88302   Biso      1.000     O          -0.6272989999999999           
         O16       1.0000    0.86070   0.10067   0.14153   Biso      1.000     O          -0.638537           
         O17       1.0000    0.36070   0.10067   0.35847   Biso      1.000     O          -0.638537           
         O18       1.0000    0.29830   0.81724   0.98899   Biso      1.000     O          -0.6372909999999999           
         O19       1.0000    0.33920   0.86105   0.11698   Biso      1.000     O          -0.6272989999999999           
         O20       1.0000    0.83790   0.77133   0.72073   Biso      1.000     O          -0.267112           
         O21       1.0000    0.13380   0.93978   0.49427   Biso      1.000     O          -0.696498           
         O22       1.0000    0.09670   0.81460   0.59143   Biso      1.000     O          -0.567958           
         O23       1.0000    0.26670   0.69334   0.51789   Biso      1.000     O          -0.19626  
         O24       1.0000    0.08980   0.95193   0.73837   Biso      1.000     O          -0.640702           
         O25       1.0000    0.37390   0.35262   0.65250   Biso      1.000     O          -0.19377  
         O26       1.0000    0.16080   0.13895   0.61698   Biso      1.000     O          -0.6272989999999999           
         O27       1.0000    0.20170   0.18276   0.48899   Biso      1.000     O          -0.637292           
         O28       1.0000    0.13930   0.89933   0.85847   Biso      1.000     O          -0.638537           
         O29       1.0000    0.66210   0.22867   0.22073   Biso      1.000     O          -0.267112           
         O30       1.0000    0.36620   0.06022   0.99427   Biso      1.000     O          -0.696498           
         O31       1.0000    0.40330   0.18540   0.09143   Biso      1.000     O          -0.567958           
         O32       1.0000    0.23330   0.30666   0.01789   Biso      1.000     O          -0.19626  
         O33       1.0000    0.41020   0.04807   0.23837   Biso      1.000     O          -0.640702           
         O34       1.0000    0.12610   0.64738   0.15250   Biso      1.000     O          -0.19377  
         O35       1.0000    0.70170   0.18276   0.01101   Biso      1.000     O          -0.6372909999999999           
         O36       1.0000    0.63930   0.89933   0.64153   Biso      1.000     O          -0.638537 