
##########################################################################
#               Crystallographic Information Format file
#               Produced by PyCifRW module
#
#  This is a CIF file.  CIF has been adopted by the International
#  Union of Crystallography as the standard for data archiving and
#  transmission.
#
#  For information on this file format, follow the CIF links at
#  http://www.iucr.org
##########################################################################

data_image0

_cell_length_a                          11.727
_cell_length_b                          13.451
_cell_length_c                          15.565
_cell_angle_alpha                       113.39
_cell_angle_beta                        98.71
_cell_angle_gamma                       102.97
_symmetry_space_group_name_H-M          'P 1'
_symmetry_int_tables_number             1
loop_
  _symmetry_equiv_pos_as_xyz
         'x, y, z' 
loop_
  _atom_site_label
  _atom_site_occupancy
  _atom_site_fract_x
  _atom_site_fract_y
  _atom_site_fract_z
  _atom_site_thermal_displace_type
  _atom_site_B_iso_or_equiv
  _atom_site_type_symbol
  _atom_site_charge
         C1        1.0000    0.35670   0.27390   0.26460   Biso      1.000     C          -0.140044           
         C2        1.0000    0.08370   0.07670   0.65430   Biso      1.000     C          -0.187111           
         C3        1.0000    0.96960   0.98820   0.61310   Biso      1.000     C          -0.180725           
         C4        1.0000    0.98650   0.89620   0.55010   Biso      1.000     C          0.07370700000000001           
         C5        1.0000    0.90630   0.77920   0.48160   Biso      1.000     C          0.582754  
         C6        1.0000    0.38660   0.91930   0.19690   Biso      1.000     C          0.085574  
         C7        1.0000    0.38540   0.99890   0.35540   Biso      1.000     C          0.115854  
         C8        1.0000    0.33600   0.07790   0.34070   Biso      1.000     C          -0.200213           
         C9        1.0000    0.33860   0.99670   0.17990   Biso      1.000     C          -0.215271           
         C10       1.0000    0.30990   0.07610   0.25040   Biso      1.000     C          0.199857  
         C11       1.0000    0.26050   0.16190   0.23230   Biso      1.000     C          -0.25026  
         C12       1.0000    0.35170   0.36920   0.35290   Biso      1.000     C          -0.257686           
         C13       1.0000    0.23060   0.45860   0.27250   Biso      1.000     C          -0.197271           
         C14       1.0000    0.13520   0.50240   0.26380   Biso      1.000     C          0.08829400000000001           
         C15       1.0000    0.24580   0.41120   0.33600   Biso      1.000     C          0.209454  
         C16       1.0000    0.15850   0.40790   0.38730   Biso      1.000     C          -0.20720300000000003          
         C17       1.0000    0.06700   0.45360   0.37640   Biso      1.000     C          0.094206  
         C18       1.0000    0.44600   0.72290   0.44520   Biso      1.000     C          0.558413  
         C19       1.0000    0.37410   0.70750   0.51110   Biso      1.000     C          0.070799  
         C20       1.0000    0.24670   0.70900   0.60400   Biso      1.000     C          -0.187105           
         C21       1.0000    0.30440   0.63200   0.60220   Biso      1.000     C          0.060278  
         C22       1.0000    0.28420   0.54700   0.63990   Biso      1.000     C          0.564448  
         C23       1.0000    0.78220   0.57860   0.17180   Biso      1.000     C          0.558717  
         C24       1.0000    0.70680   0.58120   0.08970   Biso      1.000     C          0.094297  
         C25       1.0000    0.16250   0.03110   0.61190   Biso      1.000     C          0.094083  
         C26       1.0000    0.65700   0.66010   0.08120   Biso      1.000     C          -0.181786           
         C27       1.0000    0.29180   0.07800   0.61720   Biso      1.000     C          0.539474  
         C28       1.0000    0.38890   0.48730   0.06440   Biso      1.000     C          0.075296  
         C29       1.0000    0.61340   0.08070   0.80310   Biso      1.000     C          0.085574  
         C30       1.0000    0.61460   0.00110   0.64460   Biso      1.000     C          0.115854  
         C31       1.0000    0.66400   0.92210   0.65930   Biso      1.000     C          -0.200213           
         C32       1.0000    0.66140   0.00330   0.82010   Biso      1.000     C          -0.215271           
         C33       1.0000    0.69010   0.92390   0.74960   Biso      1.000     C          0.199857  
         C34       1.0000    0.73950   0.83810   0.76770   Biso      1.000     C          -0.250261           
         C35       1.0000    0.64330   0.72610   0.73540   Biso      1.000     C          -0.140044           
         C36       1.0000    0.64830   0.63080   0.64710   Biso      1.000     C          -0.257686           
         C37       1.0000    0.76940   0.54140   0.72750   Biso      1.000     C          -0.197271           
         C38       1.0000    0.86480   0.49760   0.73620   Biso      1.000     C          0.08829400000000001           
         C39       1.0000    0.75420   0.58880   0.66400   Biso      1.000     C          0.209454  
         C40       1.0000    0.84150   0.59210   0.61270   Biso      1.000     C          -0.20720300000000003          
         C41       1.0000    0.93300   0.54640   0.62360   Biso      1.000     C          0.094206  
         C42       1.0000    0.55400   0.27710   0.55480   Biso      1.000     C          0.558413  
         C43       1.0000    0.62590   0.29250   0.48890   Biso      1.000     C          0.070799  
         C44       1.0000    0.70930   0.24230   0.45460   Biso      1.000     C          -0.169665           
         C45       1.0000    0.75330   0.29100   0.39600   Biso      1.000     C          -0.187104           
         C46       1.0000    0.69560   0.36800   0.39780   Biso      1.000     C          0.060278  
         C47       1.0000    0.71580   0.45300   0.36010   Biso      1.000     C          0.564448  
         C48       1.0000    0.21780   0.42140   0.82820   Biso      1.000     C          0.558717  
         C49       1.0000    0.29320   0.41880   0.91030   Biso      1.000     C          0.094297  
         C50       1.0000    0.34300   0.33990   0.91880   Biso      1.000     C          -0.181788           
         C51       1.0000    0.40520   0.38500   0.01850   Biso      1.000     C          -0.187554           
         C52       1.0000    0.44040   0.58010   0.16450   Biso      1.000     C          0.565924  
         C53       1.0000    0.59480   0.61500   0.98150   Biso      1.000     C          -0.18757000000000001          
         C54       1.0000    0.29070   0.75770   0.54540   Biso      1.000     C          -0.169665           
         C55       1.0000    0.55960   0.41990   0.83550   Biso      1.000     C          0.565923  
         C56       1.0000    0.70820   0.92200   0.38280   Biso      1.000     C          0.5394770000000001  
         C57       1.0000    0.83750   0.96890   0.38810   Biso      1.000     C          0.094052  
         C58       1.0000    0.91630   0.92330   0.34570   Biso      1.000     C          -0.187078           
         C59       1.0000    0.03040   0.01180   0.38690   Biso      1.000     C          -0.180729           
         C60       1.0000    0.01350   0.10380   0.44990   Biso      1.000     C          0.07370700000000001           
         C61       1.0000    0.09370   0.22080   0.51840   Biso      1.000     C          0.582754  
         C62       1.0000    0.61110   0.51270   0.93560   Biso      1.000     C          0.075311  
         H1        1.0000    0.40100   0.00190   0.41690   Biso      1.000     H          0.107878  
         H2        1.0000    0.32030   0.13270   0.39260   Biso      1.000     H          0.136317  
         H3        1.0000    0.32590   0.99380   0.11840   Biso      1.000     H          0.13055799999999998           
         H4        1.0000    0.22220   0.13090   0.16340   Biso      1.000     H          0.11551700000000001           
         H5        1.0000    0.43570   0.26350   0.27660   Biso      1.000     H          0.099151  
         H6        1.0000    0.34960   0.29530   0.21190   Biso      1.000     H          0.096773  
         H7        1.0000    0.42650   0.43200   0.37630   Biso      1.000     H          0.146352  
         H8        1.0000    0.34660   0.34430   0.40310   Biso      1.000     H          0.128742  
         H9        1.0000    0.01060   0.45020   0.41200   Biso      1.000     H          0.09461699999999999           
         H10       1.0000    0.12710   0.53220   0.21940   Biso      1.000     H          0.104247  
         H11       1.0000    0.16230   0.37450   0.42920   Biso      1.000     H          0.134649  
         H12       1.0000    0.40310   0.86430   0.14550   Biso      1.000     H          0.101172  
         H13       1.0000    0.26740   0.81320   0.53270   Biso      1.000     H          0.14973699999999998           
         H14       1.0000    0.18910   0.72660   0.63750   Biso      1.000     H          0.148428  
         H15       1.0000    0.66260   0.72990   0.13100   Biso      1.000     H          0.154513  
         H16       1.0000    0.55120   0.64930   0.95330   Biso      1.000     H          0.156333  
         H17       1.0000    0.90020   0.84890   0.29870   Biso      1.000     H          0.152334  
         H18       1.0000    0.10320   0.00570   0.37210   Biso      1.000     H          0.143957  
         H19       1.0000    0.28500   0.46120   0.23510   Biso      1.000     H          0.130841  
         H20       1.0000    0.89680   0.99430   0.62790   Biso      1.000     H          0.143957  
         H21       1.0000    0.19870   0.17490   0.26650   Biso      1.000     H          0.11940999999999999           
         H22       1.0000    0.44880   0.35070   0.04670   Biso      1.000     H          0.156332  
         H23       1.0000    0.09980   0.15110   0.70130   Biso      1.000     H          0.152336  
         H24       1.0000    0.59690   0.13570   0.85450   Biso      1.000     H          0.101173  
         H25       1.0000    0.59900   0.99810   0.58310   Biso      1.000     H          0.107878  
         H26       1.0000    0.67970   0.86730   0.60740   Biso      1.000     H          0.136317  
         H27       1.0000    0.67410   0.00620   0.88160   Biso      1.000     H          0.13055799999999998           
         H28       1.0000    0.80130   0.82510   0.73350   Biso      1.000     H          0.11940999999999999           
         H29       1.0000    0.56430   0.73650   0.72340   Biso      1.000     H          0.099151  
         H30       1.0000    0.65040   0.70470   0.78810   Biso      1.000     H          0.096773  
         H31       1.0000    0.77780   0.86910   0.83660   Biso      1.000     H          0.11551700000000001           
         H32       1.0000    0.33740   0.27010   0.86900   Biso      1.000     H          0.154514  
         H33       1.0000    0.65340   0.65570   0.59690   Biso      1.000     H          0.128742  
         H34       1.0000    0.71500   0.53880   0.76490   Biso      1.000     H          0.130841  
         H35       1.0000    0.87290   0.46780   0.78060   Biso      1.000     H          0.104247  
         H36       1.0000    0.83770   0.62550   0.57080   Biso      1.000     H          0.134649  
         H37       1.0000    0.98940   0.54980   0.58800   Biso      1.000     H          0.09461699999999999           
         H38       1.0000    0.73260   0.18680   0.46730   Biso      1.000     H          0.14973699999999998           
         H39       1.0000    0.81090   0.27340   0.36250   Biso      1.000     H          0.148428  
         H40       1.0000    0.57350   0.56800   0.62370   Biso      1.000     H          0.146352  
         N1        1.0000    0.58930   0.08010   0.71560   Biso      1.000     N          -0.217275           
         N2        1.0000    0.94600   0.49630   0.68360   Biso      1.000     N          -0.22735500000000003          
         N3        1.0000    0.41070   0.91990   0.28440   Biso      1.000     N          -0.217275           
         N4        1.0000    0.05400   0.50370   0.31640   Biso      1.000     N          -0.22735500000000003          
         O1        1.0000    0.34670   0.18170   0.68210   Biso      1.000     O          -0.587386           
         O2        1.0000    0.53080   0.68230   0.43350   Biso      1.000     O          -0.537771           
         O3        1.0000    0.95430   0.70410   0.44660   Biso      1.000     O          -0.550315           
         O4        1.0000    0.79310   0.76610   0.46460   Biso      1.000     O          -0.559371           
         O5        1.0000    0.40960   0.78030   0.40440   Biso      1.000     O          -0.535281           
         O6        1.0000    0.10660   0.91810   0.54760   Biso      1.000     O          -0.114699           
         O7        1.0000    0.34220   0.01800   0.56490   Biso      1.000     O          -0.5071439999999999           
         O8        1.0000    0.38580   0.63070   0.54660   Biso      1.000     O          -0.099276           
         O9        1.0000    0.51340   0.56320   0.22100   Biso      1.000     O          -0.562775           
         O10       1.0000    0.61420   0.36930   0.45340   Biso      1.000     O          -0.099276           
         O11       1.0000    0.64900   0.51590   0.36980   Biso      1.000     O          -0.533801           
         O12       1.0000    0.80160   0.45270   0.31940   Biso      1.000     O          -0.566809           
         O13       1.0000    0.14950   0.48260   0.84170   Biso      1.000     O          -0.518752           
         O14       1.0000    0.22020   0.35820   0.74390   Biso      1.000     O          -0.5776140000000001           
         O15       1.0000    0.31720   0.51000   0.00000   Biso      1.000     O          -0.110154           
         O16       1.0000    0.40700   0.66760   0.18340   Biso      1.000     O          -0.5381229999999999           
         O17       1.0000    0.35100   0.48410   0.63020   Biso      1.000     O          -0.533801           
         O18       1.0000    0.59040   0.21970   0.59560   Biso      1.000     O          -0.535281           
         O19       1.0000    0.85050   0.51740   0.15830   Biso      1.000     O          -0.518752           
         O20       1.0000    0.46920   0.31770   0.56650   Biso      1.000     O          -0.537772           
         O21       1.0000    0.20690   0.23390   0.53540   Biso      1.000     O          -0.559371           
         O22       1.0000    0.19840   0.54730   0.68060   Biso      1.000     O          -0.566809           
         O23       1.0000    0.89340   0.08190   0.45240   Biso      1.000     O          -0.11469700000000001          
         O24       1.0000    0.65330   0.81830   0.31790   Biso      1.000     O          -0.587387           
         O25       1.0000    0.04570   0.29590   0.55340   Biso      1.000     O          -0.550315           
         O26       1.0000    0.59300   0.33240   0.81660   Biso      1.000     O          -0.5381229999999999           
         O27       1.0000    0.48660   0.43680   0.77900   Biso      1.000     O          -0.562774           
         O28       1.0000    0.68280   0.49000   0.00000   Biso      1.000     O          -0.11015599999999999          
         O29       1.0000    0.77980   0.64180   0.25610   Biso      1.000     O          -0.577615           
         O30       1.0000    0.65780   0.98200   0.43510   Biso      1.000     O          -0.5071439999999999           
         Zn1       1.0000    0.92343   0.57970   0.31193   Biso      1.000     Zn          0.87275   
         Zn2       1.0000    0.51958   0.19165   0.69060   Biso      1.000     Zn          0.81914   
         Zn3       1.0000    0.65136   0.65428   0.34709   Biso      1.000     Zn          1.03095   
         Zn4       1.0000    0.07657   0.42030   0.68807   Biso      1.000     Zn          0.87275   
         Zn5       1.0000    0.48042   0.80835   0.30940   Biso      1.000     Zn          0.8191390000000001  
         Zn6       1.0000    0.34864   0.34572   0.65291   Biso      1.000     Zn          1.03095 