
##########################################################################
#               Crystallographic Information Format file
#               Produced by PyCifRW module
#
#  This is a CIF file.  CIF has been adopted by the International
#  Union of Crystallography as the standard for data archiving and
#  transmission.
#
#  For information on this file format, follow the CIF links at
#  http://www.iucr.org
##########################################################################

data_image0

_cell_length_a                          6.5697
_cell_length_b                          22.6167
_cell_length_c                          7.8511
_cell_angle_alpha                       90
_cell_angle_beta                        90.154
_cell_angle_gamma                       90
_symmetry_space_group_name_H-M          'P 1'
_symmetry_int_tables_number             1
loop_
  _symmetry_equiv_pos_as_xyz
         'x, y, z' 
loop_
  _atom_site_label
  _atom_site_occupancy
  _atom_site_fract_x
  _atom_site_fract_y
  _atom_site_fract_z
  _atom_site_thermal_displace_type
  _atom_site_B_iso_or_equiv
  _atom_site_type_symbol
  _atom_site_charge
         C1        1.0000    0.97720   0.92373   0.40000   Biso      1.000     C          -0.193145           
         C2        1.0000    0.40610   0.37305   0.12150   Biso      1.000     C          0.103345  
         C3        1.0000    0.21170   0.14706   0.05680   Biso      1.000     C          -0.395757           
         C4        1.0000    0.73630   0.29177   0.82110   Biso      1.000     C          0.589589  
         C5        1.0000    0.86170   0.58610   0.02100   Biso      1.000     C          0.078978  
         C6        1.0000    0.75550   0.53446   0.04970   Biso      1.000     C          -0.197233           
         C7        1.0000    0.22090   0.69184   0.57960   Biso      1.000     C          0.661987  
         C8        1.0000    0.78830   0.85294   0.94320   Biso      1.000     C          -0.395757           
         C9        1.0000    0.05860   0.97206   0.48700   Biso      1.000     C          0.095275  
         C10       1.0000    0.36170   0.91390   0.52100   Biso      1.000     C          0.078978  
         C11       1.0000    0.40750   0.67153   0.29330   Biso      1.000     C          0.069877  
         C12       1.0000    0.26370   0.70823   0.17890   Biso      1.000     C          0.589589  
         C13       1.0000    0.25550   0.96554   0.54970   Biso      1.000     C          -0.197233           
         C14       1.0000    0.72090   0.80816   0.07960   Biso      1.000     C          0.661987  
         C15       1.0000    0.59390   0.62695   0.87850   Biso      1.000     C          0.103344  
         C16       1.0000    0.55860   0.52794   0.98700   Biso      1.000     C          0.095275  
         C17       1.0000    0.63830   0.08610   0.47900   Biso      1.000     C          0.078978  
         C18       1.0000    0.47720   0.57627   0.90000   Biso      1.000     C          -0.193145           
         C19       1.0000    0.90750   0.82847   0.79330   Biso      1.000     C          0.069877  
         C20       1.0000    0.27910   0.19184   0.92040   Biso      1.000     C          0.661987  
         C21       1.0000    0.71170   0.35294   0.55680   Biso      1.000     C          -0.395758           
         C22       1.0000    0.76370   0.79177   0.67890   Biso      1.000     C          0.589589  
         C23       1.0000    0.13830   0.41390   0.97900   Biso      1.000     C          0.078978  
         C24       1.0000    0.09390   0.87305   0.37850   Biso      1.000     C          0.103345  
         C25       1.0000    0.24450   0.46554   0.95030   Biso      1.000     C          -0.197233           
         C26       1.0000    0.77910   0.30816   0.42040   Biso      1.000     C          0.661987  
         C27       1.0000    0.23630   0.20823   0.32110   Biso      1.000     C          0.589589  
         C28       1.0000    0.74450   0.03446   0.45030   Biso      1.000     C          -0.197233           
         C29       1.0000    0.59250   0.32847   0.70670   Biso      1.000     C          0.069877  
         C30       1.0000    0.44140   0.47206   0.01300   Biso      1.000     C          0.095275  
         C31       1.0000    0.02280   0.07627   0.60000   Biso      1.000     C          -0.193144           
         C32       1.0000    0.28830   0.64706   0.44320   Biso      1.000     C          -0.395758           
         C33       1.0000    0.94140   0.02794   0.51300   Biso      1.000     C          0.095275  
         C34       1.0000    0.09250   0.17153   0.20670   Biso      1.000     C          0.069877  
         C35       1.0000    0.52280   0.42373   0.10000   Biso      1.000     C          -0.193145           
         C36       1.0000    0.90610   0.12695   0.62150   Biso      1.000     C          0.103345  
         H1        1.0000    0.03600   0.84120   0.32140   Biso      1.000     H          0.103706  
         H2        1.0000    0.84550   0.92540   0.35660   Biso      1.000     H          0.129306  
         H3        1.0000    0.16760   0.62760   0.39920   Biso      1.000     H          0.150099  
         H4        1.0000    0.66760   0.87240   0.89920   Biso      1.000     H          0.150098  
         H5        1.0000    0.31570   0.99610   0.61120   Biso      1.000     H          0.126055  
         H6        1.0000    0.49370   0.91100   0.56320   Biso      1.000     H          0.093721  
         H7        1.0000    0.87100   0.88290   0.99840   Biso      1.000     H          0.142005  
         H8        1.0000    0.17930   0.79010   0.78020   Biso      1.000     H          0.320542  
         H9        1.0000    0.37220   0.30630   0.54460   Biso      1.000     H          0.316209  
         H10       1.0000    0.32070   0.29010   0.71980   Biso      1.000     H          0.320542  
         H11       1.0000    0.46400   0.34120   0.17860   Biso      1.000     H          0.103706  
         H12       1.0000    0.65450   0.42540   0.14340   Biso      1.000     H          0.129305  
         H13       1.0000    0.53740   0.36150   0.77310   Biso      1.000     H          0.069668  
         H14       1.0000    0.18430   0.49610   0.88880   Biso      1.000     H          0.126054  
         H15       1.0000    0.00630   0.41100   0.93680   Biso      1.000     H          0.093721  
         H16       1.0000    0.96260   0.86150   0.72690   Biso      1.000     H          0.069668  
         H17       1.0000    0.12780   0.80630   0.95540   Biso      1.000     H          0.31621   
         H18       1.0000    0.83240   0.37240   0.60080   Biso      1.000     H          0.150099  
         H19       1.0000    0.67930   0.70990   0.28020   Biso      1.000     H          0.320542  
         H20       1.0000    0.50630   0.08900   0.43680   Biso      1.000     H          0.093721  
         H21       1.0000    0.15450   0.07460   0.64340   Biso      1.000     H          0.129305  
         H22       1.0000    0.12900   0.11710   0.00160   Biso      1.000     H          0.142005  
         H23       1.0000    0.96400   0.15880   0.67860   Biso      1.000     H          0.103706  
         H24       1.0000    0.33240   0.12760   0.10080   Biso      1.000     H          0.150098  
         H25       1.0000    0.62780   0.69370   0.45540   Biso      1.000     H          0.31621   
         H26       1.0000    0.68430   0.00390   0.38880   Biso      1.000     H          0.126054  
         H27       1.0000    0.82070   0.20990   0.21980   Biso      1.000     H          0.320542  
         H28       1.0000    0.87220   0.19370   0.04460   Biso      1.000     H          0.31621   
         H29       1.0000    0.53600   0.65880   0.82140   Biso      1.000     H          0.103706  
         H30       1.0000    0.03740   0.13850   0.27310   Biso      1.000     H          0.069668  
         H31       1.0000    0.46260   0.63850   0.22690   Biso      1.000     H          0.069668  
         H32       1.0000    0.81570   0.50390   0.11120   Biso      1.000     H          0.126054  
         H33       1.0000    0.99370   0.58900   0.06320   Biso      1.000     H          0.093721  
         H34       1.0000    0.37100   0.61710   0.49840   Biso      1.000     H          0.142005  
         H35       1.0000    0.62900   0.38290   0.50160   Biso      1.000     H          0.142006  
         H36       1.0000    0.34550   0.57460   0.85660   Biso      1.000     H          0.129305  
         N1        1.0000    0.21540   0.36766   0.06450   Biso      1.000     N          -0.201579           
         N2        1.0000    0.28460   0.86766   0.43550   Biso      1.000     N          -0.20158  
         N3        1.0000    0.92190   0.20830   0.14290   Biso      1.000     N          -0.65792  
         N4        1.0000    0.42190   0.29170   0.64290   Biso      1.000     N          -0.657921           
         N5        1.0000    0.07810   0.79170   0.85710   Biso      1.000     N          -0.65792  
         N6        1.0000    0.71540   0.13234   0.56450   Biso      1.000     N          -0.201579           
         N7        1.0000    0.57810   0.70830   0.35710   Biso      1.000     N          -0.65792  
         N8        1.0000    0.78460   0.63234   0.93550   Biso      1.000     N          -0.201579           
         Ni1       1.0000    0.95323   0.70982   0.89402   Biso      1.000     Ni          0.816215  
         Ni2       1.0000    0.45323   0.79018   0.39402   Biso      1.000     Ni          0.816215  
         Ni3       1.0000    0.04677   0.29018   0.10598   Biso      1.000     Ni          0.816214  
         Ni4       1.0000    0.54677   0.20982   0.60598   Biso      1.000     Ni          0.816215  
         O1        1.0000    0.23620   0.24599   0.93120   Biso      1.000     O          -0.553958           
         O2        1.0000    0.23800   0.26308   0.29880   Biso      1.000     O          -0.530072           
         O3        1.0000    0.37820   0.16868   0.80041   Biso      1.000     O          -0.574444           
         O4        1.0000    0.34240   0.18020   0.42758   Biso      1.000     O          -0.562468           
         O5        1.0000    0.62180   0.83132   0.19959   Biso      1.000     O          -0.574444           
         O6        1.0000    0.73800   0.23692   0.79880   Biso      1.000     O          -0.530072           
         O7        1.0000    0.87820   0.33132   0.30041   Biso      1.000     O          -0.574443           
         O8        1.0000    0.15760   0.68020   0.07242   Biso      1.000     O          -0.562467           
         O9        1.0000    0.12180   0.66868   0.69959   Biso      1.000     O          -0.574443           
         O10       1.0000    0.26200   0.76308   0.20120   Biso      1.000     O          -0.530072           
         O11       1.0000    0.26380   0.74599   0.56880   Biso      1.000     O          -0.553958           
         O12       1.0000    0.76380   0.75401   0.06880   Biso      1.000     O          -0.553958           
         O13       1.0000    0.76200   0.73692   0.70120   Biso      1.000     O          -0.530071           
         O14       1.0000    0.65760   0.81980   0.57242   Biso      1.000     O          -0.562468           
         O15       1.0000    0.73620   0.25401   0.43120   Biso      1.000     O          -0.553958           
         O16       1.0000    0.84240   0.31980   0.92758   Biso      1.000     O          -0.562468 