
##########################################################################
#               Crystallographic Information Format file
#               Produced by PyCifRW module
#
#  This is a CIF file.  CIF has been adopted by the International
#  Union of Crystallography as the standard for data archiving and
#  transmission.
#
#  For information on this file format, follow the CIF links at
#  http://www.iucr.org
##########################################################################

data_image0

_cell_length_a                          6.8371
_cell_length_b                          22.2721
_cell_length_c                          7.7308
_cell_angle_alpha                       90
_cell_angle_beta                        90
_cell_angle_gamma                       90
_symmetry_space_group_name_H-M          'P 1'
_symmetry_int_tables_number             1
loop_
  _symmetry_equiv_pos_as_xyz
         'x, y, z' 
loop_
  _atom_site_label
  _atom_site_occupancy
  _atom_site_fract_x
  _atom_site_fract_y
  _atom_site_fract_z
  _atom_site_thermal_displace_type
  _atom_site_B_iso_or_equiv
  _atom_site_type_symbol
  _atom_site_charge
         C1        1.0000    0.30410   0.30418   0.94200   Biso      1.000     C          0.663457  
         C2        1.0000    0.24580   0.02930   0.67790   Biso      1.000     C          -0.201247           
         C3        1.0000    0.44280   0.02830   0.71560   Biso      1.000     C          0.10591099999999999           
         C4        1.0000    0.52620   0.08309   0.75900   Biso      1.000     C          -0.208304           
         C5        1.0000    0.41200   0.13422   0.75560   Biso      1.000     C          0.112223  
         C6        1.0000    0.23730   0.29902   0.53660   Biso      1.000     C          0.5825130000000001  
         C7        1.0000    0.11300   0.33527   0.66560   Biso      1.000     C          0.067271  
         C8        1.0000    0.23690   0.35439   0.81820   Biso      1.000     C          -0.385751           
         C9        1.0000    0.85910   0.91840   0.67530   Biso      1.000     C          0.08354500000000001           
         C10       1.0000    0.75420   0.97070   0.67790   Biso      1.000     C          -0.201241           
         C11       1.0000    0.55720   0.97170   0.71560   Biso      1.000     C          0.10590999999999999           
         C12       1.0000    0.47380   0.91691   0.75900   Biso      1.000     C          -0.208304           
         C13       1.0000    0.58800   0.86578   0.75560   Biso      1.000     C          0.112223  
         C14       1.0000    0.76270   0.70098   0.53660   Biso      1.000     C          0.5825130000000001  
         C15       1.0000    0.88700   0.66473   0.66560   Biso      1.000     C          0.06727000000000001           
         C16       1.0000    0.76310   0.64561   0.81820   Biso      1.000     C          -0.385751           
         C17       1.0000    0.14090   0.08160   0.67530   Biso      1.000     C          0.083551  
         C18       1.0000    0.69590   0.69582   0.94200   Biso      1.000     C          0.663457  
         C19       1.0000    0.19590   0.80418   0.05800   Biso      1.000     C          0.663457  
         C20       1.0000    0.38700   0.83527   0.33440   Biso      1.000     C          0.06727000000000001           
         C21       1.0000    0.64090   0.41840   0.32470   Biso      1.000     C          0.08354500000000001           
         C22       1.0000    0.74580   0.47070   0.32210   Biso      1.000     C          -0.201241           
         C23       1.0000    0.94280   0.47170   0.28440   Biso      1.000     C          0.10590999999999999           
         C24       1.0000    0.02620   0.41691   0.24100   Biso      1.000     C          -0.208304           
         C25       1.0000    0.91200   0.36578   0.24440   Biso      1.000     C          0.112223  
         C26       1.0000    0.73730   0.20098   0.46340   Biso      1.000     C          0.5825130000000001  
         C27       1.0000    0.61300   0.16473   0.33440   Biso      1.000     C          0.06727000000000001           
         C28       1.0000    0.73690   0.14561   0.18180   Biso      1.000     C          -0.385751           
         C29       1.0000    0.80410   0.19582   0.05800   Biso      1.000     C          0.663457  
         C30       1.0000    0.35910   0.58160   0.32470   Biso      1.000     C          0.08354500000000001           
         C31       1.0000    0.25420   0.52930   0.32210   Biso      1.000     C          -0.201241           
         C32       1.0000    0.05720   0.52830   0.28440   Biso      1.000     C          0.10590999999999999           
         C33       1.0000    0.97380   0.58309   0.24100   Biso      1.000     C          -0.208304           
         C34       1.0000    0.08800   0.63422   0.24440   Biso      1.000     C          0.112223  
         C35       1.0000    0.26270   0.79902   0.46340   Biso      1.000     C          0.5825130000000001  
         C36       1.0000    0.26310   0.85439   0.18180   Biso      1.000     C          -0.385751           
         H1        1.0000    0.68090   0.50740   0.34710   Biso      1.000     H          0.116694  
         H2        1.0000    0.51210   0.41810   0.37090   Biso      1.000     H          0.09592300000000001           
         H3        1.0000    0.97590   0.32810   0.23430   Biso      1.000     H          0.10218300000000001           
         H4        1.0000    0.16170   0.41470   0.26740   Biso      1.000     H          0.125073  
         H5        1.0000    0.06100   0.37190   0.60640   Biso      1.000     H          0.071784  
         H6        1.0000    0.35480   0.37500   0.77310   Biso      1.000     H          0.147912  
         H7        1.0000    0.16190   0.38420   0.88610   Biso      1.000     H          0.135756  
         H8        1.0000    0.90500   0.31140   0.83340   Biso      1.000     H          0.312069  
         H9        1.0000    0.84460   0.30030   0.65010   Biso      1.000     H          0.316246  
         H10       1.0000    0.98790   0.91810   0.62910   Biso      1.000     H          0.095924  
         H11       1.0000    0.81910   0.00740   0.65290   Biso      1.000     H          0.11669500000000001           
         H12       1.0000    0.33830   0.91470   0.73260   Biso      1.000     H          0.125073  
         H13       1.0000    0.52410   0.82810   0.76570   Biso      1.000     H          0.102184  
         H14       1.0000    0.93900   0.62810   0.60640   Biso      1.000     H          0.071784  
         H15       1.0000    0.64520   0.62500   0.77310   Biso      1.000     H          0.147912  
         H16       1.0000    0.83810   0.61580   0.88610   Biso      1.000     H          0.135756  
         H17       1.0000    0.09500   0.68860   0.83340   Biso      1.000     H          0.312069  
         H18       1.0000    0.15540   0.69970   0.65010   Biso      1.000     H          0.316246  
         H19       1.0000    0.66170   0.08530   0.73260   Biso      1.000     H          0.125073  
         H20       1.0000    0.18090   0.99260   0.65290   Biso      1.000     H          0.11669500000000001           
         H21       1.0000    0.47590   0.17190   0.76570   Biso      1.000     H          0.102184  
         H22       1.0000    0.65540   0.80030   0.34990   Biso      1.000     H          0.316246  
         H23       1.0000    0.56100   0.12810   0.39360   Biso      1.000     H          0.071784  
         H24       1.0000    0.85480   0.12500   0.22690   Biso      1.000     H          0.147912  
         H25       1.0000    0.66190   0.11580   0.11390   Biso      1.000     H          0.135756  
         H26       1.0000    0.01210   0.08190   0.62910   Biso      1.000     H          0.09592300000000001           
         H27       1.0000    0.34460   0.19970   0.34990   Biso      1.000     H          0.316245  
         H28       1.0000    0.48790   0.58190   0.37090   Biso      1.000     H          0.095924  
         H29       1.0000    0.31910   0.49260   0.34710   Biso      1.000     H          0.11669500000000001           
         H30       1.0000    0.40500   0.18860   0.16660   Biso      1.000     H          0.312069  
         H31       1.0000    0.02410   0.67190   0.23430   Biso      1.000     H          0.102184  
         H32       1.0000    0.43900   0.87190   0.39360   Biso      1.000     H          0.071784  
         H33       1.0000    0.14520   0.87500   0.22690   Biso      1.000     H          0.147912  
         H34       1.0000    0.33810   0.88420   0.11390   Biso      1.000     H          0.135756  
         H35       1.0000    0.59500   0.81140   0.16660   Biso      1.000     H          0.312069  
         H36       1.0000    0.83830   0.58530   0.26740   Biso      1.000     H          0.125073  
         N1        1.0000    0.55270   0.79845   0.27320   Biso      1.000     N          -0.6479659999999999           
         N2        1.0000    0.94730   0.29845   0.72680   Biso      1.000     N          -0.6479659999999999           
         N3        1.0000    0.27940   0.63412   0.26090   Biso      1.000     N          -0.19756300000000002          
         N4        1.0000    0.44730   0.20155   0.27320   Biso      1.000     N          -0.6479659999999999           
         N5        1.0000    0.72060   0.36588   0.26090   Biso      1.000     N          -0.19756300000000002          
         N6        1.0000    0.05270   0.70155   0.72680   Biso      1.000     N          -0.647967           
         N7        1.0000    0.77940   0.86588   0.73910   Biso      1.000     N          -0.19756300000000002          
         N8        1.0000    0.22060   0.13412   0.73910   Biso      1.000     N          -0.19756300000000002          
         Ni1       1.0000    0.94392   0.78741   0.74172   Biso      1.000     Ni          0.8176439999999999  
         Ni2       1.0000    0.55608   0.28741   0.25828   Biso      1.000     Ni          0.817646  
         Ni3       1.0000    0.44392   0.71259   0.25828   Biso      1.000     Ni          0.817646  
         Ni4       1.0000    0.05608   0.21259   0.74172   Biso      1.000     Ni          0.8176439999999999  
         O1        1.0000    0.90000   0.17495   0.93240   Biso      1.000     O          -0.5754279999999999           
         O2        1.0000    0.76370   0.24976   0.08280   Biso      1.000     O          -0.555044           
         O3        1.0000    0.28570   0.74295   0.46130   Biso      1.000     O          -0.5314909999999999           
         O4        1.0000    0.14860   0.82701   0.56160   Biso      1.000     O          -0.553416           
         O5        1.0000    0.10000   0.82505   0.93240   Biso      1.000     O          -0.5754279999999999           
         O6        1.0000    0.23630   0.75024   0.08280   Biso      1.000     O          -0.555044           
         O7        1.0000    0.21430   0.24295   0.53870   Biso      1.000     O          -0.5314909999999999           
         O8        1.0000    0.35140   0.32701   0.43840   Biso      1.000     O          -0.553417           
         O9        1.0000    0.40000   0.32505   0.06760   Biso      1.000     O          -0.5754279999999999           
         O10       1.0000    0.26370   0.25024   0.91720   Biso      1.000     O          -0.555044           
         O11       1.0000    0.78570   0.75705   0.53870   Biso      1.000     O          -0.5314909999999999           
         O12       1.0000    0.64860   0.67299   0.43840   Biso      1.000     O          -0.553417           
         O13       1.0000    0.60000   0.67495   0.06760   Biso      1.000     O          -0.5754279999999999           
         O14       1.0000    0.73630   0.74976   0.91720   Biso      1.000     O          -0.555044           
         O15       1.0000    0.85140   0.17299   0.56160   Biso      1.000     O          -0.553417           
         O16       1.0000    0.71430   0.25705   0.46130   Biso      1.000     O          -0.5314909999999999 