
##########################################################################
#               Crystallographic Information Format file
#               Produced by PyCifRW module
#
#  This is a CIF file.  CIF has been adopted by the International
#  Union of Crystallography as the standard for data archiving and
#  transmission.
#
#  For information on this file format, follow the CIF links at
#  http://www.iucr.org
##########################################################################

data_image0

_cell_length_a                          6.796
_cell_length_b                          10.214
_cell_length_c                          18.41
_cell_angle_alpha                       90
_cell_angle_beta                        90
_cell_angle_gamma                       90
_symmetry_space_group_name_H-M          'P 1'
_symmetry_int_tables_number             1
loop_
  _symmetry_equiv_pos_as_xyz
         'x, y, z' 
loop_
  _atom_site_label
  _atom_site_occupancy
  _atom_site_fract_x
  _atom_site_fract_y
  _atom_site_fract_z
  _atom_site_thermal_displace_type
  _atom_site_B_iso_or_equiv
  _atom_site_type_symbol
  _atom_site_charge
         C1        1.0000    0.33000   0.46480   0.03500   Biso      1.000     C          -0.10736500000000002          
         C2        1.0000    0.98620   0.89160   0.85630   Biso      1.000     C          0.621827  
         C3        1.0000    0.82300   0.98610   0.96540   Biso      1.000     C          -0.10661199999999998          
         C4        1.0000    0.17000   0.96480   0.96500   Biso      1.000     C          -0.107366           
         C5        1.0000    0.51380   0.39160   0.14370   Biso      1.000     C          0.621829  
         C6        1.0000    0.50720   0.45230   0.06970   Biso      1.000     C          -0.016705           
         C7        1.0000    0.67700   0.48610   0.03460   Biso      1.000     C          -0.10660399999999999          
         C8        1.0000    0.98620   0.89160   0.64370   Biso      1.000     C          0.6218279999999999  
         C9        1.0000    0.99280   0.95230   0.56970   Biso      1.000     C          -0.016711           
         C10       1.0000    0.82300   0.98610   0.53460   Biso      1.000     C          -0.106603           
         C11       1.0000    0.17000   0.96480   0.53500   Biso      1.000     C          -0.107359           
         C12       1.0000    0.67000   0.53520   0.53500   Biso      1.000     C          -0.10736500000000002          
         C13       1.0000    0.51380   0.39160   0.35630   Biso      1.000     C          0.6218279999999999  
         C14       1.0000    0.67700   0.48610   0.46540   Biso      1.000     C          -0.10660599999999999          
         C15       1.0000    0.33000   0.46480   0.46500   Biso      1.000     C          -0.10736400000000001          
         C16       1.0000    0.01380   0.10840   0.14370   Biso      1.000     C          0.621829  
         C17       1.0000    0.00720   0.04770   0.06970   Biso      1.000     C          -0.016711           
         C18       1.0000    0.17700   0.01390   0.03460   Biso      1.000     C          -0.106597           
         C19       1.0000    0.83000   0.03520   0.03500   Biso      1.000     C          -0.10735399999999999          
         C20       1.0000    0.48620   0.60840   0.85630   Biso      1.000     C          0.6218279999999999  
         C21       1.0000    0.49280   0.54770   0.93030   Biso      1.000     C          -0.016712           
         C22       1.0000    0.32300   0.51390   0.96540   Biso      1.000     C          -0.106598           
         C23       1.0000    0.67000   0.53520   0.96500   Biso      1.000     C          -0.107356           
         C24       1.0000    0.50720   0.45230   0.43030   Biso      1.000     C          -0.016699000000000002         
         C25       1.0000    0.32300   0.51390   0.53460   Biso      1.000     C          -0.106607           
         C26       1.0000    0.99280   0.95230   0.93030   Biso      1.000     C          -0.016699000000000002         
         C27       1.0000    0.48620   0.60840   0.64370   Biso      1.000     C          0.621827  
         C28       1.0000    0.83000   0.03520   0.46500   Biso      1.000     C          -0.10736  
         C29       1.0000    0.17700   0.01390   0.46540   Biso      1.000     C          -0.106607           
         C30       1.0000    0.00720   0.04770   0.43030   Biso      1.000     C          -0.016699000000000002         
         C31       1.0000    0.01380   0.10840   0.35630   Biso      1.000     C          0.6218279999999999  
         C32       1.0000    0.49280   0.54770   0.56970   Biso      1.000     C          -0.0167   
         H1        1.0000    0.29740   0.02400   0.44210   Biso      1.000     H          0.12541   
         H2        1.0000    0.71410   0.05990   0.44160   Biso      1.000     H          0.12564   
         H3        1.0000    0.20260   0.52400   0.55790   Biso      1.000     H          0.125409  
         H4        1.0000    0.78590   0.55990   0.55840   Biso      1.000     H          0.12564   
         H5        1.0000    0.70260   0.97600   0.94210   Biso      1.000     H          0.12541   
         H6        1.0000    0.28590   0.94010   0.94160   Biso      1.000     H          0.12564   
         H7        1.0000    0.21410   0.44010   0.05840   Biso      1.000     H          0.125641  
         H8        1.0000    0.70260   0.97600   0.55790   Biso      1.000     H          0.125409  
         H9        1.0000    0.79740   0.47600   0.05790   Biso      1.000     H          0.125409  
         H10       1.0000    0.79740   0.47600   0.44210   Biso      1.000     H          0.12541   
         H11       1.0000    0.21410   0.44010   0.44160   Biso      1.000     H          0.125641  
         H12       1.0000    0.29740   0.02400   0.05790   Biso      1.000     H          0.125409  
         H13       1.0000    0.71410   0.05990   0.05840   Biso      1.000     H          0.12564   
         H14       1.0000    0.20260   0.52400   0.94210   Biso      1.000     H          0.125409  
         H15       1.0000    0.78590   0.55990   0.94160   Biso      1.000     H          0.12564   
         H16       1.0000    0.28590   0.94010   0.55840   Biso      1.000     H          0.12564   
         O1        1.0000    0.81930   0.87580   0.67170   Biso      1.000     O          -0.596821           
         O2        1.0000    0.35170   0.36030   0.32750   Biso      1.000     O          -0.578435           
         O3        1.0000    0.68070   0.37580   0.32830   Biso      1.000     O          -0.5968220000000001           
         O4        1.0000    0.85170   0.13970   0.17250   Biso      1.000     O          -0.578436           
         O5        1.0000    0.31930   0.62420   0.82830   Biso      1.000     O          -0.596821           
         O6        1.0000    0.48400   0.82840   0.75000   Biso      1.000     O          -0.750251           
         O7        1.0000    0.01600   0.32840   0.25000   Biso      1.000     O          -0.750252           
         O8        1.0000    0.14830   0.86030   0.67250   Biso      1.000     O          -0.578434           
         O9        1.0000    0.64830   0.63970   0.82750   Biso      1.000     O          -0.578434           
         O10       1.0000    0.18070   0.12420   0.17170   Biso      1.000     O          -0.5968220000000001           
         O11       1.0000    0.68070   0.37580   0.17170   Biso      1.000     O          -0.5968220000000001           
         O12       1.0000    0.51600   0.17160   0.25000   Biso      1.000     O          -0.750252           
         O13       1.0000    0.81930   0.87580   0.82830   Biso      1.000     O          -0.59682  
         O14       1.0000    0.14830   0.86030   0.82750   Biso      1.000     O          -0.578433           
         O15       1.0000    0.31930   0.62420   0.67170   Biso      1.000     O          -0.59682  
         O16       1.0000    0.64830   0.63970   0.67250   Biso      1.000     O          -0.578433           
         O17       1.0000    0.18070   0.12420   0.32830   Biso      1.000     O          -0.5968220000000001           
         O18       1.0000    0.85170   0.13970   0.32750   Biso      1.000     O          -0.578435           
         O19       1.0000    0.98400   0.67160   0.75000   Biso      1.000     O          -0.750251           
         O20       1.0000    0.35170   0.36030   0.17250   Biso      1.000     O          -0.578435           
         V1        1.0000    0.30070   0.23230   0.25000   Biso      1.000     V          1.8163470000000002  
         V2        1.0000    0.19930   0.73230   0.75000   Biso      1.000     V          1.8163470000000002  
         V3        1.0000    0.69930   0.76770   0.75000   Biso      1.000     V          1.8163470000000002  
         V4        1.0000    0.80070   0.26770   0.25000   Biso      1.000     V          1.8163479999999999 