
##########################################################################
#               Crystallographic Information Format file
#               Produced by PyCifRW module
#
#  This is a CIF file.  CIF has been adopted by the International
#  Union of Crystallography as the standard for data archiving and
#  transmission.
#
#  For information on this file format, follow the CIF links at
#  http://www.iucr.org
##########################################################################

data_image0

_cell_length_a                          13.3297
_cell_length_b                          16.3213
_cell_length_c                          16.3213
_cell_angle_alpha                       80.401
_cell_angle_beta                        65.8987
_cell_angle_gamma                       65.8987
_symmetry_space_group_name_H-M          'P 1'
_symmetry_int_tables_number             1
loop_
  _symmetry_equiv_pos_as_xyz
         'x, y, z' 
loop_
  _atom_site_label
  _atom_site_occupancy
  _atom_site_fract_x
  _atom_site_fract_y
  _atom_site_fract_z
  _atom_site_thermal_displace_type
  _atom_site_B_iso_or_equiv
  _atom_site_type_symbol
  _atom_site_charge
         C1        1.0000    0.24228   0.23360   0.42024   Biso      1.000     C          -0.181105           
         C2        1.0000    0.39449   0.10851   0.10991   Biso      1.000     C          0.6012930000000001  
         C3        1.0000    0.79345   0.62146   0.61784   Biso      1.000     C          0.615264  
         C4        1.0000    0.75112   0.69739   0.68137   Biso      1.000     C          -0.088885           
         C5        1.0000    0.65736   0.70124   0.75924   Biso      1.000     C          -0.11015499999999999          
         C6        1.0000    0.61409   0.76671   0.82431   Biso      1.000     C          -0.107098           
         C7        1.0000    0.66537   0.82671   0.81235   Biso      1.000     C          -0.063051           
         C8        1.0000    0.22988   0.23782   0.33742   Biso      1.000     C          0.044048000000000004          
         C9        1.0000    0.76083   0.82743   0.72971   Biso      1.000     C          0.054901  
         C10       1.0000    0.90150   0.89250   0.62990   Biso      1.000     C          -0.090316           
         C11       1.0000    0.94411   0.82877   0.56501   Biso      1.000     C          -0.079769           
         C12       1.0000    0.89612   0.76640   0.57976   Biso      1.000     C          -0.185559           
         C13       1.0000    0.80512   0.76218   0.66258   Biso      1.000     C          0.045656999999999996          
         C14       1.0000    0.61291   0.89149   0.89009   Biso      1.000     C          0.6011380000000001  
         C15       1.0000    0.16491   0.87854   0.11784   Biso      1.000     C          0.615056  
         C16       1.0000    0.81337   0.89263   0.71023   Biso      1.000     C          -0.132854           
         C17       1.0000    0.80443   0.18765   0.17329   Biso      1.000     C          -0.065954           
         C18       1.0000    0.33789   0.17123   0.43499   Biso      1.000     C          -0.082414           
         C19       1.0000    0.42390   0.10750   0.37010   Biso      1.000     C          -0.089909           
         C20       1.0000    0.74208   0.31235   0.67329   Biso      1.000     C          -0.063261           
         C21       1.0000    0.83826   0.22971   0.67257   Biso      1.000     C          0.05714400000000001           
         C22       1.0000    0.95600   0.21023   0.60737   Biso      1.000     C          -0.135267           
         C23       1.0000    0.04400   0.12990   0.60750   Biso      1.000     C          -0.087127           
         C24       1.0000    0.02288   0.06501   0.67123   Biso      1.000     C          -0.081835           
         C25       1.0000    0.91252   0.07976   0.73360   Biso      1.000     C          -0.182864           
         C26       1.0000    0.81730   0.16258   0.73782   Biso      1.000     C          0.043878  
         C27       1.0000    0.75440   0.39009   0.60851   Biso      1.000     C          0.597579  
         C28       1.0000    0.03275   0.37854   0.38216   Biso      1.000     C          0.617715  
         C29       1.0000    0.12988   0.30261   0.31863   Biso      1.000     C          -0.090532           
         C30       1.0000    0.11784   0.29876   0.24076   Biso      1.000     C          -0.10868399999999999          
         C31       1.0000    0.20511   0.23329   0.17569   Biso      1.000     C          -0.106093           
         C32       1.0000    0.30443   0.17329   0.18765   Biso      1.000     C          -0.06589199999999999          
         C33       1.0000    0.31797   0.17257   0.27029   Biso      1.000     C          0.057429999999999995          
         C34       1.0000    0.41623   0.10737   0.28977   Biso      1.000     C          -0.133827           
         C35       1.0000    0.19851   0.80261   0.18137   Biso      1.000     C          -0.090037           
         C36       1.0000    0.63080   0.32431   0.73329   Biso      1.000     C          -0.108865           
         C37       1.0000    0.10860   0.79876   0.25924   Biso      1.000     C          -0.107682           
         C38       1.0000    0.24208   0.67329   0.31235   Biso      1.000     C          -0.06322699999999999          
         C39       1.0000    0.29345   0.61784   0.62146   Biso      1.000     C          0.615226  
         C40       1.0000    0.25112   0.68137   0.69739   Biso      1.000     C          -0.08885599999999999          
         C41       1.0000    0.15736   0.75924   0.70124   Biso      1.000     C          -0.11018399999999999          
         C42       1.0000    0.11409   0.82431   0.76671   Biso      1.000     C          -0.10708800000000002          
         C43       1.0000    0.16537   0.81235   0.82671   Biso      1.000     C          -0.063095           
         C44       1.0000    0.26083   0.72971   0.82743   Biso      1.000     C          0.054903  
         C45       1.0000    0.25300   0.39149   0.60991   Biso      1.000     C          0.598183  
         C46       1.0000    0.31337   0.71023   0.89263   Biso      1.000     C          -0.132888           
         C47       1.0000    0.44411   0.56501   0.82877   Biso      1.000     C          -0.079805           
         C48       1.0000    0.39612   0.57976   0.76640   Biso      1.000     C          -0.185555           
         C49       1.0000    0.30512   0.66258   0.76218   Biso      1.000     C          0.045649  
         C50       1.0000    0.11291   0.89009   0.89149   Biso      1.000     C          0.601156  
         C51       1.0000    0.53275   0.38216   0.37854   Biso      1.000     C          0.617676  
         C52       1.0000    0.62988   0.31863   0.30261   Biso      1.000     C          -0.090503           
         C53       1.0000    0.40150   0.62990   0.89250   Biso      1.000     C          -0.090303           
         C54       1.0000    0.21770   0.26218   0.83742   Biso      1.000     C          0.046471  
         C55       1.0000    0.22588   0.26640   0.92024   Biso      1.000     C          -0.183632           
         C56       1.0000    0.25912   0.32877   0.93499   Biso      1.000     C          -0.08127000000000001          
         C57       1.0000    0.33826   0.67257   0.22971   Biso      1.000     C          0.057137  
         C58       1.0000    0.45600   0.60737   0.21023   Biso      1.000     C          -0.135249           
         C59       1.0000    0.54400   0.60750   0.12990   Biso      1.000     C          -0.087147           
         C60       1.0000    0.52288   0.67123   0.06501   Biso      1.000     C          -0.08184  
         C61       1.0000    0.41252   0.73360   0.07976   Biso      1.000     C          -0.182881           
         C62       1.0000    0.31730   0.73782   0.16258   Biso      1.000     C          0.043883  
         C63       1.0000    0.25440   0.60851   0.39009   Biso      1.000     C          0.597536  
         C64       1.0000    0.16129   0.12146   0.88216   Biso      1.000     C          0.6187560000000001  
         C65       1.0000    0.18249   0.19739   0.81863   Biso      1.000     C          -0.091477           
         C66       1.0000    0.16660   0.20124   0.74076   Biso      1.000     C          -0.107865           
         C67       1.0000    0.18840   0.26671   0.67569   Biso      1.000     C          -0.107984           
         C68       1.0000    0.22772   0.32671   0.68765   Biso      1.000     C          -0.064148           
         C69       1.0000    0.24054   0.32743   0.77029   Biso      1.000     C          0.055921000000000005          
         C70       1.0000    0.27360   0.39263   0.78977   Biso      1.000     C          -0.134627           
         C71       1.0000    0.28140   0.39250   0.87010   Biso      1.000     C          -0.087364           
         C72       1.0000    0.13080   0.73329   0.32431   Biso      1.000     C          -0.10890899999999999          
         C73       1.0000    0.60860   0.25924   0.79876   Biso      1.000     C          -0.10769100000000001          
         C74       1.0000    0.69851   0.18137   0.80261   Biso      1.000     C          -0.08998400000000001          
         C75       1.0000    0.66491   0.11784   0.87854   Biso      1.000     C          0.615029  
         C76       1.0000    0.89449   0.10991   0.10851   Biso      1.000     C          0.601314  
         C77       1.0000    0.72988   0.33742   0.23782   Biso      1.000     C          0.044041000000000004          
         C78       1.0000    0.74228   0.42024   0.23360   Biso      1.000     C          -0.181101           
         C79       1.0000    0.83789   0.43499   0.17123   Biso      1.000     C          -0.08244800000000001          
         C80       1.0000    0.92390   0.37010   0.10750   Biso      1.000     C          -0.089909           
         C81       1.0000    0.91623   0.28977   0.10737   Biso      1.000     C          -0.133847           
         C82       1.0000    0.81797   0.27029   0.17257   Biso      1.000     C          0.057432000000000004          
         C83       1.0000    0.61784   0.24076   0.29876   Biso      1.000     C          -0.10871600000000001          
         C84       1.0000    0.66129   0.88216   0.12146   Biso      1.000     C          0.618731  
         C85       1.0000    0.68249   0.81863   0.19739   Biso      1.000     C          -0.091437           
         C86       1.0000    0.70511   0.17569   0.23329   Biso      1.000     C          -0.106065           
         C87       1.0000    0.68840   0.67569   0.26671   Biso      1.000     C          -0.10794000000000001          
         C88       1.0000    0.72772   0.68765   0.32671   Biso      1.000     C          -0.064184           
         C89       1.0000    0.74054   0.77029   0.32743   Biso      1.000     C          0.055929  
         C90       1.0000    0.77360   0.78977   0.39263   Biso      1.000     C          -0.13464500000000001          
         C91       1.0000    0.78140   0.87010   0.39250   Biso      1.000     C          -0.087345           
         C92       1.0000    0.66660   0.74076   0.20124   Biso      1.000     C          -0.10786099999999998          
         C93       1.0000    0.72588   0.92024   0.26640   Biso      1.000     C          -0.183614           
         C94       1.0000    0.71770   0.83742   0.26218   Biso      1.000     C          0.046468  
         C95       1.0000    0.75300   0.60991   0.39149   Biso      1.000     C          0.598226  
         C96       1.0000    0.75912   0.93499   0.32877   Biso      1.000     C          -0.081264           
         Co1       1.0000    0.63702   0.00000   0.00000   Biso      1.000     Co          0.9673120000000001  
         Co2       1.0000    0.88702   0.50000   0.50000   Biso      1.000     Co          0.967259  
         Co3       1.0000    0.13702   0.00000   0.00000   Biso      1.000     Co          0.967643  
         Co4       1.0000    0.38702   0.50000   0.50000   Biso      1.000     Co          0.966815  
         H1        1.0000    0.48800   0.06390   0.38190   Biso      1.000     H          0.10548900000000001           
         H2        1.0000    0.47560   0.06450   0.24690   Biso      1.000     H          0.119547  
         H3        1.0000    0.19450   0.23110   0.12330   Biso      1.000     H          0.11984600000000001           
         H4        1.0000    0.05130   0.33980   0.23040   Biso      1.000     H          0.115628  
         H5        1.0000    0.89890   0.03470   0.77450   Biso      1.000     H          0.11346300000000001           
         H6        1.0000    0.08490   0.01110   0.67110   Biso      1.000     H          0.107374  
         H7        1.0000    0.11990   0.11810   0.56390   Biso      1.000     H          0.10415999999999999           
         H8        1.0000    0.53170   0.26960   0.83980   Biso      1.000     H          0.115808  
         H9        1.0000    0.56780   0.37670   0.73110   Biso      1.000     H          0.120674  
         H10       1.0000    0.70810   0.96530   0.22550   Biso      1.000     H          0.11358399999999999           
         H11       1.0000    0.76710   0.98890   0.32890   Biso      1.000     H          0.106967  
         H12       1.0000    0.34600   0.17110   0.48890   Biso      1.000     H          0.107503  
         H13       1.0000    0.79010   0.74690   0.43550   Biso      1.000     H          0.11995399999999999           
         H14       1.0000    0.67560   0.62330   0.26890   Biso      1.000     H          0.12069500000000001           
         H15       1.0000    0.64110   0.73040   0.16020   Biso      1.000     H          0.115659  
         H16       1.0000    0.97250   0.25310   0.56450   Biso      1.000     H          0.11964200000000001           
         H17       1.0000    0.80190   0.88190   0.43610   Biso      1.000     H          0.10369500000000001           
         H18       1.0000    0.62150   0.66020   0.76960   Biso      1.000     H          0.11695799999999999           
         H19       1.0000    0.54890   0.76890   0.87670   Biso      1.000     H          0.119555  
         H20       1.0000    0.68360   0.46530   0.27450   Biso      1.000     H          0.11308399999999999           
         H21       1.0000    0.84600   0.48890   0.17110   Biso      1.000     H          0.107499  
         H22       1.0000    0.98800   0.38190   0.06390   Biso      1.000     H          0.10548699999999998           
         H23       1.0000    0.97560   0.24690   0.06450   Biso      1.000     H          0.119539  
         H24       1.0000    0.69450   0.12330   0.23110   Biso      1.000     H          0.11983900000000001           
         H25       1.0000    0.55130   0.23040   0.33980   Biso      1.000     H          0.115624  
         H26       1.0000    0.42340   0.53470   0.72550   Biso      1.000     H          0.114621  
         H27       1.0000    0.50600   0.51110   0.82890   Biso      1.000     H          0.10735499999999999           
         H28       1.0000    0.43380   0.61810   0.93610   Biso      1.000     H          0.10491199999999999           
         H29       1.0000    0.28700   0.75310   0.93550   Biso      1.000     H          0.119674  
         H30       1.0000    0.04890   0.87670   0.76890   Biso      1.000     H          0.119549  
         H31       1.0000    0.12150   0.76960   0.66020   Biso      1.000     H          0.116954  
         H32       1.0000    0.20810   0.22550   0.96530   Biso      1.000     H          0.113575  
         H33       1.0000    0.26710   0.32890   0.98890   Biso      1.000     H          0.10696199999999999           
         H34       1.0000    0.30190   0.43610   0.88190   Biso      1.000     H          0.10369   
         H35       1.0000    0.29010   0.43550   0.74690   Biso      1.000     H          0.11995399999999999           
         H36       1.0000    0.17560   0.26890   0.62330   Biso      1.000     H          0.12068499999999999           
         H37       1.0000    0.14110   0.16020   0.73040   Biso      1.000     H          0.115649  
         H38       1.0000    0.39890   0.77450   0.03470   Biso      1.000     H          0.113455  
         H39       1.0000    0.58490   0.67110   0.01110   Biso      1.000     H          0.10737100000000001           
         H40       1.0000    0.61990   0.56390   0.11810   Biso      1.000     H          0.104156  
         H41       1.0000    0.47250   0.56450   0.25310   Biso      1.000     H          0.11964300000000001           
         H42       1.0000    0.06780   0.73110   0.37670   Biso      1.000     H          0.12066500000000001           
         H43       1.0000    0.92340   0.72550   0.53470   Biso      1.000     H          0.114621  
         H44       1.0000    0.00600   0.82890   0.51110   Biso      1.000     H          0.107358  
         H45       1.0000    0.93380   0.93610   0.61810   Biso      1.000     H          0.10491600000000001           
         H46       1.0000    0.78700   0.93550   0.75310   Biso      1.000     H          0.119682  
         H47       1.0000    0.18360   0.27450   0.46530   Biso      1.000     H          0.11308399999999999           
         H48       1.0000    0.03170   0.83980   0.26960   Biso      1.000     H          0.115798  
         Na1       1.0000    0.39379   0.93040   0.09248   Biso      1.000     Na          0.8899739999999999  
         Na2       1.0000    0.23627   0.43040   0.40752   Biso      1.000     Na          0.8895200000000001  
         Na3       1.0000    0.07419   0.56960   0.59248   Biso      1.000     Na          0.889747  
         Na4       1.0000    0.89379   0.09248   0.93040   Biso      1.000     Na          0.8899739999999999  
         Na5       1.0000    0.91667   0.90752   0.06960   Biso      1.000     Na          0.889785  
         Na6       1.0000    0.57419   0.59248   0.56960   Biso      1.000     Na          0.889757  
         Na7       1.0000    0.73627   0.40752   0.43040   Biso      1.000     Na          0.889531  
         Na8       1.0000    0.41667   0.06960   0.90752   Biso      1.000     Na          0.8897860000000001  
         O1        1.0000    0.23555   0.91820   0.07380   Biso      1.000     O          -0.625815           
         O2        1.0000    0.34997   0.58450   0.40336   Biso      1.000     O          -0.563158           
         O3        1.0000    0.17136   0.58401   0.43487   Biso      1.000     O          -0.695042           
         O4        1.0000    0.07903   0.10005   0.88949   Biso      1.000     O          -0.629054           
         O5        1.0000    0.22755   0.08180   0.92620   Biso      1.000     O          -0.6273489999999999           
         O6        1.0000    0.33783   0.41550   0.59664   Biso      1.000     O          -0.564109           
         O7        1.0000    0.18447   0.90336   0.91550   Biso      1.000     O          -0.564757           
         O8        1.0000    0.21852   0.61051   0.60005   Biso      1.000     O          -0.628096           
         O9        1.0000    0.40375   0.57380   0.58180   Biso      1.000     O          -0.6254930000000001           
         O10       1.0000    0.06857   0.89995   0.11051   Biso      1.000     O          -0.627256           
         O11       1.0000    0.00537   0.93487   0.91599   Biso      1.000     O          -0.697311           
         O12       1.0000    0.42908   0.38949   0.39995   Biso      1.000     O          -0.628913           
         O13       1.0000    0.55935   0.42620   0.41820   Biso      1.000     O          -0.625548           
         O14       1.0000    0.19024   0.41599   0.56513   Biso      1.000     O          -0.694655           
         O15       1.0000    0.50537   0.91599   0.93487   Biso      1.000     O          -0.697342           
         O16       1.0000    0.71852   0.60005   0.61051   Biso      1.000     O          -0.6280859999999999           
         O17       1.0000    0.90375   0.58180   0.57380   Biso      1.000     O          -0.6254529999999999           
         O18       1.0000    0.00333   0.09664   0.08450   Biso      1.000     O          -0.56507  
         O19       1.0000    0.35623   0.08401   0.06513   Biso      1.000     O          -0.696756           
         O20       1.0000    0.50333   0.08450   0.09664   Biso      1.000     O          -0.565087           
         O21       1.0000    0.05935   0.41820   0.42620   Biso      1.000     O          -0.6255069999999999           
         O22       1.0000    0.92908   0.39995   0.38949   Biso      1.000     O          -0.628903           
         O23       1.0000    0.67136   0.43487   0.58401   Biso      1.000     O          -0.6949569999999999           
         O24       1.0000    0.84997   0.40336   0.58450   Biso      1.000     O          -0.56315  
         O25       1.0000    0.73555   0.07380   0.91820   Biso      1.000     O          -0.625814           
         O26       1.0000    0.56857   0.11051   0.89995   Biso      1.000     O          -0.627251           
         O27       1.0000    0.69024   0.56513   0.41599   Biso      1.000     O          -0.6945680000000001           
         O28       1.0000    0.83783   0.59664   0.41550   Biso      1.000     O          -0.5641010000000001           
         O29       1.0000    0.72755   0.92620   0.08180   Biso      1.000     O          -0.6273449999999999           
         O30       1.0000    0.57903   0.88949   0.10005   Biso      1.000     O          -0.629049           
         O31       1.0000    0.68447   0.91550   0.90336   Biso      1.000     O          -0.564773           
         O32       1.0000    0.85623   0.06513   0.08401   Biso      1.000     O          -0.696724 