
##########################################################################
#               Crystallographic Information Format file
#               Produced by PyCifRW module
#
#  This is a CIF file.  CIF has been adopted by the International
#  Union of Crystallography as the standard for data archiving and
#  transmission.
#
#  For information on this file format, follow the CIF links at
#  http://www.iucr.org
##########################################################################

data_image0

_cell_length_a                          12.4903
_cell_length_b                          12.4903
_cell_length_c                          22.4855
_cell_angle_alpha                       82.4179
_cell_angle_beta                        81.509
_cell_angle_gamma                       119.779
_symmetry_space_group_name_H-M          'P 1'
_symmetry_int_tables_number             1
loop_
  _symmetry_equiv_pos_as_xyz
         'x, y, z' 
loop_
  _atom_site_label
  _atom_site_occupancy
  _atom_site_fract_x
  _atom_site_fract_y
  _atom_site_fract_z
  _atom_site_thermal_displace_type
  _atom_site_B_iso_or_equiv
  _atom_site_type_symbol
  _atom_site_charge
         C1        1.0000    0.92070   0.04730   0.94700   Biso      1.000     C          -0.192923           
         C2        1.0000    0.13310   0.53780   0.27070   Biso      1.000     C          0.045501  
         C3        1.0000    0.23770   0.65830   0.26180   Biso      1.000     C          -0.177161           
         C4        1.0000    0.30840   0.68500   0.30540   Biso      1.000     C          0.172408  
         C5        1.0000    0.64410   0.03020   0.29470   Biso      1.000     C          -0.127153           
         C6        1.0000    0.58770   0.92700   0.34450   Biso      1.000     C          0.100281  
         C7        1.0000    0.42600   0.81030   0.29970   Biso      1.000     C          0.171191  
         C8        1.0000    0.47650   0.90950   0.24820   Biso      1.000     C          -0.167066           
         C9        1.0000    0.58850   0.02230   0.24560   Biso      1.000     C          0.053414  
         C10       1.0000    0.65030   0.13300   0.18830   Biso      1.000     C          0.613078  
         C11       1.0000    0.68980   0.95440   0.59580   Biso      1.000     C          0.614278  
         C12       1.0000    0.57580   0.74810   0.48450   Biso      1.000     C          0.118316  
         C13       1.0000    0.60820   0.87720   0.55560   Biso      1.000     C          0.043489  
         C14       1.0000    0.64760   0.81470   0.52150   Biso      1.000     C          -0.119393           
         C15       1.0000    0.49430   0.86770   0.55300   Biso      1.000     C          -0.194299           
         C16       1.0000    0.42420   0.79820   0.51460   Biso      1.000     C          0.164019  
         C17       1.0000    0.29860   0.77870   0.50890   Biso      1.000     C          0.185499  
         C18       1.0000    0.23770   0.82660   0.54210   Biso      1.000     C          -0.183805           
         C19       1.0000    0.13330   0.68350   0.46220   Biso      1.000     C          0.104954  
         C20       1.0000    0.06570   0.72740   0.49410   Biso      1.000     C          -0.1451   
         C21       1.0000    0.11950   0.80160   0.53450   Biso      1.000     C          0.049051  
         C22       1.0000    0.05310   0.85490   0.56980   Biso      1.000     C          0.567425  
         C23       1.0000    0.10090   0.44570   0.32360   Biso      1.000     C          -0.150388           
         C24       1.0000    0.65680   0.46010   0.86510   Biso      1.000     C          0.096527  
         C25       1.0000    0.17480   0.47810   0.36510   Biso      1.000     C          0.095078  
         C26       1.0000    0.76230   0.17340   0.45790   Biso      1.000     C          -0.183791           
         C27       1.0000    0.83620   0.16910   0.97850   Biso      1.000     C          -0.119227           
         C28       1.0000    0.93280   0.16380   0.94440   Biso      1.000     C          0.042266  
         C29       1.0000    0.73260   0.06030   0.01550   Biso      1.000     C          0.118832  
         C30       1.0000    0.05020   0.28560   0.90420   Biso      1.000     C          0.616464  
         C31       1.0000    0.82130   0.83860   0.31170   Biso      1.000     C          0.611215  
         C32       1.0000    0.76790   0.83410   0.25440   Biso      1.000     C          0.057005  
         C33       1.0000    0.65770   0.72470   0.25180   Biso      1.000     C          -0.16923  
         C34       1.0000    0.61000   0.72570   0.20030   Biso      1.000     C          0.171554  
         C35       1.0000    0.77150   0.93220   0.15550   Biso      1.000     C          0.101905  
         C36       1.0000    0.82490   0.93880   0.20530   Biso      1.000     C          -0.130823           
         C37       1.0000    0.49040   0.61380   0.19460   Biso      1.000     C          0.174072  
         C38       1.0000    0.42010   0.49950   0.23820   Biso      1.000     C          -0.177293           
         C39       1.0000    0.30850   0.40380   0.22930   Biso      1.000     C          0.045832  
         C40       1.0000    0.26930   0.42450   0.17640   Biso      1.000     C          -0.151372           
         C41       1.0000    0.34320   0.53990   0.13490   Biso      1.000     C          0.096539  
         C42       1.0000    0.22760   0.27780   0.27620   Biso      1.000     C          0.573829  
         C43       1.0000    0.94690   0.14510   0.43020   Biso      1.000     C          0.567427  
         C44       1.0000    0.81280   0.93880   0.98540   Biso      1.000     C          0.164938  
         C45       1.0000    0.88050   0.19840   0.46550   Biso      1.000     C          0.049068  
         C46       1.0000    0.93430   0.27260   0.50590   Biso      1.000     C          -0.145072           
         C47       1.0000    0.86670   0.31650   0.53780   Biso      1.000     C          0.104966  
         C48       1.0000    0.05400   0.50380   0.22380   Biso      1.000     C          0.572658  
         C49       1.0000    0.73070   0.57550   0.82360   Biso      1.000     C          -0.151386           
         C50       1.0000    0.77240   0.72220   0.72380   Biso      1.000     C          0.573825  
         C51       1.0000    0.57990   0.50050   0.76180   Biso      1.000     C          -0.177312           
         C52       1.0000    0.69150   0.59620   0.77070   Biso      1.000     C          0.045816  
         C53       1.0000    0.31020   0.04560   0.40420   Biso      1.000     C          0.614272  
         C54       1.0000    0.34970   0.86700   0.81170   Biso      1.000     C          0.613084  
         C55       1.0000    0.41150   0.97770   0.75440   Biso      1.000     C          0.05343   
         C56       1.0000    0.52350   0.09050   0.75180   Biso      1.000     C          -0.167051           
         C57       1.0000    0.57400   0.18970   0.70030   Biso      1.000     C          0.171201  
         C58       1.0000    0.41230   0.07300   0.65550   Biso      1.000     C          0.100302  
         C59       1.0000    0.35590   0.96980   0.70530   Biso      1.000     C          -0.127126           
         C60       1.0000    0.69160   0.31500   0.69460   Biso      1.000     C          0.17242   
         C61       1.0000    0.39180   0.12280   0.44440   Biso      1.000     C          0.04351   
         C62       1.0000    0.76230   0.34170   0.73820   Biso      1.000     C          -0.177143           
         C63       1.0000    0.89910   0.55430   0.67640   Biso      1.000     C          -0.150363           
         C64       1.0000    0.82520   0.52190   0.63490   Biso      1.000     C          0.095091  
         C65       1.0000    0.94600   0.49620   0.77620   Biso      1.000     C          0.57266   
         C66       1.0000    0.92470   0.62290   0.93020   Biso      1.000     C          0.568265  
         C67       1.0000    0.83610   0.65400   0.96550   Biso      1.000     C          0.049923  
         C68       1.0000    0.72150   0.55980   0.00590   Biso      1.000     C          -0.145756           
         C69       1.0000    0.64570   0.59550   0.03780   Biso      1.000     C          0.105187  
         C70       1.0000    0.86870   0.77980   0.95790   Biso      1.000     C          -0.184968           
         C71       1.0000    0.78760   0.80750   0.99110   Biso      1.000     C          0.185827  
         C72       1.0000    0.86690   0.46220   0.72930   Biso      1.000     C          0.045527  
         C73       1.0000    0.35240   0.18530   0.47850   Biso      1.000     C          -0.11938  
         C74       1.0000    0.42420   0.25190   0.51550   Biso      1.000     C          0.118342  
         C75       1.0000    0.57580   0.20180   0.48540   Biso      1.000     C          0.164034  
         C76       1.0000    0.50960   0.38620   0.80540   Biso      1.000     C          0.174064  
         C77       1.0000    0.17510   0.06120   0.79470   Biso      1.000     C          -0.130846           
         C78       1.0000    0.22850   0.06780   0.84450   Biso      1.000     C          0.101892  
         C79       1.0000    0.39000   0.27430   0.79970   Biso      1.000     C          0.171545  
         C80       1.0000    0.34230   0.27530   0.74820   Biso      1.000     C          -0.169244           
         C81       1.0000    0.23210   0.16590   0.74560   Biso      1.000     C          0.056993  
         C82       1.0000    0.17870   0.16140   0.68830   Biso      1.000     C          0.611209  
         C83       1.0000    0.94980   0.71440   0.09580   Biso      1.000     C          0.616468  
         C84       1.0000    0.50570   0.13230   0.44700   Biso      1.000     C          -0.194277           
         C85       1.0000    0.06720   0.83620   0.05560   Biso      1.000     C          0.042251  
         C86       1.0000    0.16380   0.83090   0.02150   Biso      1.000     C          -0.119235           
         C87       1.0000    0.26740   0.93970   0.98450   Biso      1.000     C          0.118822  
         C88       1.0000    0.07530   0.37710   0.06980   Biso      1.000     C          0.568262  
         C89       1.0000    0.07930   0.95270   0.05300   Biso      1.000     C          -0.19293  
         C90       1.0000    0.18720   0.06120   0.01460   Biso      1.000     C          0.164933  
         C91       1.0000    0.21240   0.19250   0.00890   Biso      1.000     C          0.185822  
         C92       1.0000    0.13130   0.22020   0.04210   Biso      1.000     C          -0.184974           
         C93       1.0000    0.35430   0.40450   0.96220   Biso      1.000     C          0.105175  
         C94       1.0000    0.27850   0.44020   0.99410   Biso      1.000     C          -0.145773           
         C95       1.0000    0.16390   0.34600   0.03450   Biso      1.000     C          0.049914  
         C96       1.0000    0.70140   0.22130   0.49110   Biso      1.000     C          0.185505  
         Cl1       1.0000    0.68114   0.53875   0.52581   Biso      1.000     Cl          -0.508411           
         Cl2       1.0000    0.43544   0.79305   0.02581   Biso      1.000     Cl          -0.508346           
         Cl3       1.0000    0.56456   0.20695   0.97419   Biso      1.000     Cl          -0.508484           
         Cl4       1.0000    0.31886   0.46125   0.47419   Biso      1.000     Cl          -0.508657           
         Cu1       1.0000    0.57799   0.79139   0.07894   Biso      1.000     Cu          0.561437  
         Cu2       1.0000    0.37033   0.65693   0.42106   Biso      1.000     Cu          0.562412  
         Cu3       1.0000    0.42201   0.20861   0.92106   Biso      1.000     Cu          0.561349  
         Cu4       1.0000    0.62967   0.34307   0.57894   Biso      1.000     Cu          0.562509  
         Dy1       1.0000    0.90601   0.42845   0.13999   Biso      1.000     Dy          2.042697  
         Dy2       1.0000    0.06844   0.04600   0.36001   Biso      1.000     Dy          2.042183  
         Dy3       1.0000    0.09399   0.57155   0.86001   Biso      1.000     Dy          2.042697  
         Dy4       1.0000    0.93156   0.95400   0.63999   Biso      1.000     Dy          2.042177  
         H1        1.0000    0.72490   0.12490   0.43060   Biso      1.000     H          0.139676  
         H2        1.0000    0.05550   0.15550   0.06940   Biso      1.000     H          0.13902   
         H3        1.0000    0.15420   0.41630   0.40010   Biso      1.000     H          0.099005  
         H4        1.0000    0.03070   0.36390   0.33060   Biso      1.000     H          0.138954  
         H5        1.0000    0.26040   0.72090   0.22670   Biso      1.000     H          0.15427   
         H6        1.0000    0.71890   0.10430   0.29420   Biso      1.000     H          0.146774  
         H7        1.0000    0.62600   0.93340   0.37740   Biso      1.000     H          0.091442  
         H8        1.0000    0.43660   0.90120   0.21580   Biso      1.000     H          0.144838  
         H9        1.0000    0.60340   0.70560   0.46160   Biso      1.000     H          0.113684  
         H10       1.0000    0.72290   0.81780   0.52350   Biso      1.000     H          0.147505  
         H11       1.0000    0.01380   0.29250   0.51150   Biso      1.000     H          0.134695  
         H12       1.0000    0.46450   0.90750   0.57680   Biso      1.000     H          0.132339  
         H13       1.0000    0.09760   0.63390   0.43490   Biso      1.000     H          0.095511  
         H14       1.0000    0.98620   0.70750   0.48850   Biso      1.000     H          0.134683  
         H15       1.0000    0.68360   0.44570   0.90010   Biso      1.000     H          0.0982    
         H16       1.0000    0.80550   0.63870   0.83060   Biso      1.000     H          0.139354  
         H17       1.0000    0.55240   0.51290   0.72670   Biso      1.000     H          0.154217  
         H18       1.0000    0.10150   0.98690   0.79420   Biso      1.000     H          0.14653   
         H19       1.0000    0.18920   0.99660   0.87740   Biso      1.000     H          0.091625  
         H20       1.0000    0.38300   0.34760   0.71580   Biso      1.000     H          0.145291  
         H21       1.0000    0.33280   0.93500   0.96160   Biso      1.000     H          0.113838  
         H22       1.0000    0.27510   0.87510   0.56940   Biso      1.000     H          0.139665  
         H23       1.0000    0.43120   0.46750   0.93490   Biso      1.000     H          0.095184  
         H24       1.0000    0.30400   0.52530   0.98850   Biso      1.000     H          0.135328  
         H25       1.0000    0.15870   0.75360   0.02350   Biso      1.000     H          0.147337  
         H26       1.0000    0.53550   0.09250   0.42320   Biso      1.000     H          0.132357  
         H27       1.0000    0.27710   0.18220   0.47650   Biso      1.000     H          0.147524  
         H28       1.0000    0.39660   0.29440   0.53840   Biso      1.000     H          0.113699  
         H29       1.0000    0.56340   0.09880   0.78420   Biso      1.000     H          0.144858  
         H30       1.0000    0.37400   0.06660   0.62260   Biso      1.000     H          0.091452  
         H31       1.0000    0.28110   0.89570   0.70580   Biso      1.000     H          0.146785  
         H32       1.0000    0.73960   0.27910   0.77330   Biso      1.000     H          0.154289  
         H33       1.0000    0.96930   0.63610   0.66940   Biso      1.000     H          0.138968  
         H34       1.0000    0.84580   0.58370   0.59990   Biso      1.000     H          0.099011  
         H35       1.0000    0.69600   0.47470   0.01150   Biso      1.000     H          0.135338  
         H36       1.0000    0.56880   0.53250   0.06510   Biso      1.000     H          0.095186  
         H37       1.0000    0.94450   0.84450   0.93060   Biso      1.000     H          0.139024  
         H38       1.0000    0.98430   0.04130   0.92320   Biso      1.000     H          0.131524  
         H39       1.0000    0.84130   0.24640   0.97650   Biso      1.000     H          0.147347  
         H40       1.0000    0.66720   0.06500   0.03840   Biso      1.000     H          0.11385   
         H41       1.0000    0.61700   0.65240   0.28420   Biso      1.000     H          0.145303  
         H42       1.0000    0.81080   0.00340   0.12260   Biso      1.000     H          0.091629  
         H43       1.0000    0.89850   0.01310   0.20580   Biso      1.000     H          0.146537  
         H44       1.0000    0.44760   0.48710   0.27330   Biso      1.000     H          0.154228  
         H45       1.0000    0.19450   0.36130   0.16940   Biso      1.000     H          0.139362  
         H46       1.0000    0.31640   0.55430   0.09990   Biso      1.000     H          0.098202  
         H47       1.0000    0.90240   0.36610   0.56510   Biso      1.000     H          0.095511  
         H48       1.0000    0.01570   0.95870   0.07680   Biso      1.000     H          0.131515  
         N1        1.0000    0.67740   0.71630   0.03130   Biso      1.000     N          -0.259054           
         N2        1.0000    0.72403   0.40440   0.64277   Biso      1.000     N          -0.235413           
         N3        1.0000    0.52087   0.18290   0.65223   Biso      1.000     N          -0.258097           
         N4        1.0000    0.75240   0.29130   0.53130   Biso      1.000     N          -0.25999  
         N5        1.0000    0.72095   0.94720   0.02025   Biso      1.000     N          -0.218331           
         N6        1.0000    0.53255   0.25880   0.52025   Biso      1.000     N          -0.216521           
         N7        1.0000    0.45283   0.63320   0.14277   Biso      1.000     N          -0.237302           
         N8        1.0000    0.32260   0.28370   0.96870   Biso      1.000     N          -0.25903  
         N9        1.0000    0.27905   0.05280   0.97975   Biso      1.000     N          -0.218333           
         N10       1.0000    0.33513   0.17310   0.84777   Biso      1.000     N          -0.257746           
         N11       1.0000    0.54717   0.36680   0.85723   Biso      1.000     N          -0.237309           
         N12       1.0000    0.24760   0.70870   0.46870   Biso      1.000     N          -0.259962           
         N13       1.0000    0.66487   0.82690   0.15223   Biso      1.000     N          -0.257742           
         N14       1.0000    0.46745   0.74120   0.47975   Biso      1.000     N          -0.216525           
         N15       1.0000    0.47913   0.81710   0.34777   Biso      1.000     N          -0.258111           
         N16       1.0000    0.27597   0.59560   0.35723   Biso      1.000     N          -0.235426           
         O1        1.0000    0.90550   0.09730   0.38680   Biso      1.000     O          -0.621017           
         O2        1.0000    0.75570   0.75210   0.35880   Biso      1.000     O          -0.564671           
         O3        1.0000    0.92930   0.93280   0.30570   Biso      1.000     O          -0.733996           
         O4        1.0000    0.05703   0.38615   0.91382   Biso      1.000     O          -0.758378           
         O5        1.0000    0.12760   0.27940   0.86700   Biso      1.000     O          -0.560431           
         O6        1.0000    0.01590   0.70770   0.88680   Biso      1.000     O          -0.621264           
         O7        1.0000    0.90560   0.51214   0.94426   Biso      1.000     O          -0.616021           
         O8        1.0000    0.91910   0.41470   0.82280   Biso      1.000     O          -0.600461           
         O9        1.0000    0.38910   0.88550   0.85880   Biso      1.000     O          -0.565713           
         O10       1.0000    0.26150   0.76500   0.80570   Biso      1.000     O          -0.734625           
         O11       1.0000    0.20003   0.02915   0.41382   Biso      1.000     O          -0.757134           
         O12       1.0000    0.35360   0.00540   0.36700   Biso      1.000     O          -0.559947           
         O13       1.0000    0.04360   0.15014   0.44426   Biso      1.000     O          -0.615379           
         O14       1.0000    0.03660   0.60760   0.76680   Biso      1.000     O          -0.616528           
         O15       1.0000    0.96340   0.39240   0.23320   Biso      1.000     O          -0.616542           
         O16       1.0000    0.08090   0.58530   0.17720   Biso      1.000     O          -0.600479           
         O17       1.0000    0.09440   0.48786   0.05574   Biso      1.000     O          -0.616032           
         O18       1.0000    0.98410   0.29230   0.11320   Biso      1.000     O          -0.621263           
         O19       1.0000    0.87240   0.72060   0.13300   Biso      1.000     O          -0.560446           
         O20       1.0000    0.94297   0.61385   0.08618   Biso      1.000     O          -0.75838  
         O21       1.0000    0.07070   0.06720   0.69430   Biso      1.000     O          -0.733999           
         O22       1.0000    0.24430   0.24790   0.64120   Biso      1.000     O          -0.564682           
         O23       1.0000    0.26250   0.25810   0.32280   Biso      1.000     O          -0.600866           
         O24       1.0000    0.73750   0.74190   0.67720   Biso      1.000     O          -0.600873           
         O25       1.0000    0.95640   0.84986   0.55574   Biso      1.000     O          -0.615391           
         O26       1.0000    0.09450   0.90270   0.61320   Biso      1.000     O          -0.621026           
         O27       1.0000    0.64640   0.99460   0.63300   Biso      1.000     O          -0.559982           
         O28       1.0000    0.79997   0.97085   0.58618   Biso      1.000     O          -0.757141           
         O29       1.0000    0.73850   0.23500   0.19430   Biso      1.000     O          -0.734637           
         O30       1.0000    0.61090   0.11450   0.14120   Biso      1.000     O          -0.565739           
         O31       1.0000    0.87440   0.80340   0.73320   Biso      1.000     O          -0.617445           
         O32       1.0000    0.12560   0.19660   0.26680   Biso      1.000     O          -0.617439 