
##########################################################################
#               Crystallographic Information Format file
#               Produced by PyCifRW module
#
#  This is a CIF file.  CIF has been adopted by the International
#  Union of Crystallography as the standard for data archiving and
#  transmission.
#
#  For information on this file format, follow the CIF links at
#  http://www.iucr.org
##########################################################################

data_image0

_cell_length_a                          6.3057
_cell_length_b                          8.3529
_cell_length_c                          9.1064
_cell_angle_alpha                       98.2
_cell_angle_beta                        91.28
_cell_angle_gamma                       103.2
_symmetry_space_group_name_H-M          'P 1'
_symmetry_int_tables_number             1
loop_
  _symmetry_equiv_pos_as_xyz
         'x, y, z' 
loop_
  _atom_site_label
  _atom_site_occupancy
  _atom_site_fract_x
  _atom_site_fract_y
  _atom_site_fract_z
  _atom_site_thermal_displace_type
  _atom_site_B_iso_or_equiv
  _atom_site_type_symbol
  _atom_site_charge
         C1        1.0000    0.65030   0.97930   0.78100   Biso      1.000     C          0.612632  
         C2        1.0000    0.11170   0.87220   0.98960   Biso      1.000     C          -0.056469           
         C3        1.0000    0.82870   0.99080   0.89690   Biso      1.000     C          -0.087768           
         C4        1.0000    0.22650   0.73100   0.98160   Biso      1.000     C          0.597719  
         C5        1.0000    0.93970   0.86320   0.88730   Biso      1.000     C          -0.075067           
         C6        1.0000    0.86780   0.70880   0.77040   Biso      1.000     C          0.64762   
         C7        1.0000    0.17130   0.00920   0.10310   Biso      1.000     C          -0.087768           
         C8        1.0000    0.88830   0.12780   0.01040   Biso      1.000     C          -0.056469           
         C9        1.0000    0.77350   0.26900   0.01840   Biso      1.000     C          0.597719  
         C10       1.0000    0.06030   0.13680   0.11270   Biso      1.000     C          -0.075067           
         C11       1.0000    0.13220   0.29120   0.22960   Biso      1.000     C          0.64762   
         C12       1.0000    0.34970   0.02070   0.21900   Biso      1.000     C          0.612632  
         H1        1.0000    0.40700   0.04200   0.74500   Biso      1.000     H          0.406408  
         H2        1.0000    0.59300   0.95800   0.25500   Biso      1.000     H          0.406408  
         O1        1.0000    0.80720   0.36540   0.92294   Biso      1.000     O          -0.633022           
         O2        1.0000    0.50490   0.06060   0.82470   Biso      1.000     O          -0.487726           
         O3        1.0000    0.70740   0.59818   0.79446   Biso      1.000     O          -0.6252   
         O4        1.0000    0.98000   0.70090   0.65935   Biso      1.000     O          -0.507022           
         O5        1.0000    0.64820   0.90050   0.65750   Biso      1.000     O          -0.475033           
         O6        1.0000    0.64570   0.29020   0.11866   Biso      1.000     O          -0.601445           
         O7        1.0000    0.19280   0.63460   0.07706   Biso      1.000     O          -0.633022           
         O8        1.0000    0.49510   0.93940   0.17530   Biso      1.000     O          -0.487726           
         O9        1.0000    0.02000   0.29910   0.34065   Biso      1.000     O          -0.507022           
         O10       1.0000    0.35180   0.09950   0.34250   Biso      1.000     O          -0.475033           
         O11       1.0000    0.35430   0.70980   0.88134   Biso      1.000     O          -0.601445           
         O12       1.0000    0.29260   0.40182   0.20554   Biso      1.000     O          -0.6252   
         U1        1.0000    0.50000   0.50000   0.00000   Biso      1.000     U          1.95904   
         Zn1       1.0000    0.00000   0.50000   0.50000   Biso      1.000     Zn          0.609707 