
##########################################################################
#               Crystallographic Information Format file
#               Produced by PyCifRW module
#
#  This is a CIF file.  CIF has been adopted by the International
#  Union of Crystallography as the standard for data archiving and
#  transmission.
#
#  For information on this file format, follow the CIF links at
#  http://www.iucr.org
##########################################################################

data_image0

_cell_length_a                          10.198
_cell_length_b                          13.285
_cell_length_c                          22.367
_cell_angle_alpha                       90
_cell_angle_beta                        90
_cell_angle_gamma                       97.775
_symmetry_space_group_name_H-M          'P 1'
_symmetry_int_tables_number             1
loop_
  _symmetry_equiv_pos_as_xyz
         'x, y, z' 
loop_
  _atom_site_label
  _atom_site_occupancy
  _atom_site_fract_x
  _atom_site_fract_y
  _atom_site_fract_z
  _atom_site_thermal_displace_type
  _atom_site_B_iso_or_equiv
  _atom_site_type_symbol
  _atom_site_charge
         C1        1.0000    0.08340   0.37860   0.18520   Biso      1.000     C          0.150556  
         C2        1.0000    0.55350   0.33420   0.08060   Biso      1.000     C          0.11933900000000001           
         C3        1.0000    0.55800   0.38330   0.16920   Biso      1.000     C          0.135973  
         C4        1.0000    0.08010   0.31700   0.10060   Biso      1.000     C          0.131241  
         C5        1.0000    0.76740   0.98070   0.16660   Biso      1.000     C          0.14343699999999998           
         C6        1.0000    0.79590   0.03560   0.25360   Biso      1.000     C          0.1271    
         C7        1.0000    0.69880   0.90220   0.71460   Biso      1.000     C          0.658633  
         C8        1.0000    0.77850   0.04400   0.99120   Biso      1.000     C          0.569172  
         C9        1.0000    0.64580   0.93330   0.91550   Biso      1.000     C          -0.10572999999999999          
         C10       1.0000    0.63750   0.88330   0.85980   Biso      1.000     C          -0.171498           
         C11       1.0000    0.74750   0.88160   0.82450   Biso      1.000     C          0.169685  
         C12       1.0000    0.87020   0.92930   0.84450   Biso      1.000     C          -0.193218           
         C13       1.0000    0.87790   0.97830   0.90070   Biso      1.000     C          -0.10578499999999999          
         C14       1.0000    0.73900   0.83320   0.76340   Biso      1.000     C          -0.4044   
         C15       1.0000    0.76750   0.98190   0.93450   Biso      1.000     C          -0.018445           
         C16       1.0000    0.44650   0.16580   0.58060   Biso      1.000     C          0.11933800000000001           
         C17       1.0000    0.44200   0.11670   0.66920   Biso      1.000     C          0.135974  
         C18       1.0000    0.91990   0.18300   0.60060   Biso      1.000     C          0.131241  
         C19       1.0000    0.91660   0.12140   0.68520   Biso      1.000     C          0.150556  
         C20       1.0000    0.23260   0.51930   0.66660   Biso      1.000     C          0.14343699999999998           
         C21       1.0000    0.20410   0.46440   0.75360   Biso      1.000     C          0.1271    
         C22       1.0000    0.30120   0.59780   0.21460   Biso      1.000     C          0.658633  
         C23       1.0000    0.22150   0.45600   0.49120   Biso      1.000     C          0.569172  
         C24       1.0000    0.35420   0.56670   0.41550   Biso      1.000     C          -0.10572999999999999          
         C25       1.0000    0.36250   0.61670   0.35980   Biso      1.000     C          -0.171498           
         C26       1.0000    0.25250   0.61840   0.32450   Biso      1.000     C          0.169685  
         C27       1.0000    0.12980   0.57070   0.34450   Biso      1.000     C          -0.193218           
         C28       1.0000    0.26100   0.66680   0.26340   Biso      1.000     C          -0.4044   
         C29       1.0000    0.76750   0.48190   0.56550   Biso      1.000     C          -0.018455000000000003         
         C30       1.0000    0.87790   0.47830   0.59930   Biso      1.000     C          -0.105775           
         C31       1.0000    0.87020   0.42930   0.65550   Biso      1.000     C          -0.19322  
         C32       1.0000    0.26100   0.16680   0.23660   Biso      1.000     C          -0.4044   
         C33       1.0000    0.44650   0.66580   0.91940   Biso      1.000     C          0.11933800000000001           
         C34       1.0000    0.44200   0.61670   0.83080   Biso      1.000     C          0.135974  
         C35       1.0000    0.91990   0.68300   0.89940   Biso      1.000     C          0.131241  
         C36       1.0000    0.91660   0.62140   0.81480   Biso      1.000     C          0.150556  
         C37       1.0000    0.23260   0.01930   0.83340   Biso      1.000     C          0.14343699999999998           
         C38       1.0000    0.20410   0.96440   0.74640   Biso      1.000     C          0.1271    
         C39       1.0000    0.30120   0.09780   0.28540   Biso      1.000     C          0.658633  
         C40       1.0000    0.22150   0.95600   0.00880   Biso      1.000     C          0.569172  
         C41       1.0000    0.35420   0.06670   0.08450   Biso      1.000     C          -0.10572999999999999          
         C42       1.0000    0.36250   0.11670   0.14020   Biso      1.000     C          -0.171498           
         C43       1.0000    0.25250   0.11840   0.17550   Biso      1.000     C          0.169685  
         C44       1.0000    0.12980   0.07070   0.15550   Biso      1.000     C          -0.193218           
         C45       1.0000    0.12210   0.02170   0.09930   Biso      1.000     C          -0.10578499999999999          
         C46       1.0000    0.23250   0.01810   0.06550   Biso      1.000     C          -0.018445           
         C47       1.0000    0.73900   0.33320   0.73660   Biso      1.000     C          -0.4044   
         C48       1.0000    0.55350   0.83420   0.41940   Biso      1.000     C          0.11933900000000001           
         C49       1.0000    0.55800   0.88330   0.33080   Biso      1.000     C          0.135973  
         C50       1.0000    0.08010   0.81700   0.39940   Biso      1.000     C          0.131241  
         C51       1.0000    0.08340   0.87860   0.31480   Biso      1.000     C          0.150556  
         C52       1.0000    0.76740   0.48070   0.33340   Biso      1.000     C          0.14343699999999998           
         C53       1.0000    0.79590   0.53560   0.24640   Biso      1.000     C          0.127099  
         C54       1.0000    0.69880   0.40220   0.78540   Biso      1.000     C          0.658634  
         C55       1.0000    0.77850   0.54400   0.50880   Biso      1.000     C          0.5691729999999999  
         C56       1.0000    0.64580   0.43330   0.58450   Biso      1.000     C          -0.10572899999999999          
         C57       1.0000    0.63750   0.38330   0.64020   Biso      1.000     C          -0.171498           
         C58       1.0000    0.74750   0.38160   0.67550   Biso      1.000     C          0.169685  
         C59       1.0000    0.12210   0.52170   0.40070   Biso      1.000     C          -0.10578499999999999          
         C60       1.0000    0.23250   0.51810   0.43450   Biso      1.000     C          -0.018445           
         Cd1       1.0000    0.20680   0.31683   0.58015   Biso      1.000     Cd          0.761412  
         Cd2       1.0000    0.78837   0.28465   0.24358   Biso      1.000     Cd          0.49877299999999997           
         Cd3       1.0000    0.66231   0.50876   0.89308   Biso      1.000     Cd          0.469958  
         Cd4       1.0000    0.21163   0.71535   0.75642   Biso      1.000     Cd          0.498771  
         Cd5       1.0000    0.33769   0.99124   0.39308   Biso      1.000     Cd          0.46996000000000004           
         Cd6       1.0000    0.78837   0.78465   0.25642   Biso      1.000     Cd          0.49877200000000005           
         Cd7       1.0000    0.79320   0.68317   0.41985   Biso      1.000     Cd          0.761414  
         Cd8       1.0000    0.20680   0.81683   0.91985   Biso      1.000     Cd          0.761413  
         Cd9       1.0000    0.79320   0.18317   0.08015   Biso      1.000     Cd          0.761413  
         Cd10      1.0000    0.66231   0.00876   0.60692   Biso      1.000     Cd          0.469958  
         Cd11      1.0000    0.21163   0.21535   0.74358   Biso      1.000     Cd          0.49877200000000005           
         Cd12      1.0000    0.33769   0.49124   0.10692   Biso      1.000     Cd          0.46996000000000004           
         H1        1.0000    0.57080   0.93370   0.93910   Biso      1.000     H          0.123253  
         H2        1.0000    0.46940   0.17530   0.54050   Biso      1.000     H          0.084273  
         H3        1.0000    0.55610   0.85090   0.84670   Biso      1.000     H          0.10794000000000001           
         H4        1.0000    0.94560   0.92880   0.82120   Biso      1.000     H          0.10593499999999999           
         H5        1.0000    0.95960   0.00850   0.91480   Biso      1.000     H          0.10872799999999999           
         H6        1.0000    0.17560   0.68660   0.25330   Biso      1.000     H          0.138907  
         H7        1.0000    0.32480   0.72800   0.26470   Biso      1.000     H          0.154255  
         H8        1.0000    0.46210   0.08420   0.70420   Biso      1.000     H          0.10984100000000001           
         H9        1.0000    0.44390   0.64910   0.34670   Biso      1.000     H          0.10794000000000001           
         H10       1.0000    0.88970   0.08440   0.71940   Biso      1.000     H          0.102242  
         H11       1.0000    0.24300   0.56250   0.63370   Biso      1.000     H          0.10263299999999999           
         H12       1.0000    0.19030   0.46080   0.79470   Biso      1.000     H          0.09500700000000001           
         H13       1.0000    0.42920   0.56630   0.43910   Biso      1.000     H          0.123253  
         H14       1.0000    0.80970   0.03920   0.29470   Biso      1.000     H          0.09500700000000001           
         H15       1.0000    0.05440   0.57120   0.32120   Biso      1.000     H          0.10593499999999999           
         H16       1.0000    0.04040   0.49150   0.41480   Biso      1.000     H          0.10872799999999999           
         H17       1.0000    0.17560   0.18660   0.24670   Biso      1.000     H          0.138907  
         H18       1.0000    0.89610   0.19900   0.56190   Biso      1.000     H          0.09647   
         H19       1.0000    0.75700   0.93750   0.13370   Biso      1.000     H          0.10263299999999999           
         H20       1.0000    0.32480   0.22800   0.23530   Biso      1.000     H          0.154255  
         H21       1.0000    0.10390   0.30100   0.06190   Biso      1.000     H          0.09647   
         H22       1.0000    0.11030   0.41560   0.21940   Biso      1.000     H          0.102242  
         H23       1.0000    0.46940   0.67530   0.95950   Biso      1.000     H          0.084273  
         H24       1.0000    0.46210   0.58420   0.79580   Biso      1.000     H          0.10984100000000001           
         H25       1.0000    0.89610   0.69900   0.93810   Biso      1.000     H          0.09647   
         H26       1.0000    0.88970   0.58440   0.78060   Biso      1.000     H          0.102242  
         H27       1.0000    0.24300   0.06250   0.86630   Biso      1.000     H          0.10263299999999999           
         H28       1.0000    0.42920   0.06630   0.06090   Biso      1.000     H          0.123253  
         H29       1.0000    0.44390   0.14910   0.15330   Biso      1.000     H          0.10794000000000001           
         H30       1.0000    0.05440   0.07120   0.17880   Biso      1.000     H          0.10593499999999999           
         H31       1.0000    0.04040   0.99150   0.08520   Biso      1.000     H          0.10872799999999999           
         H32       1.0000    0.82440   0.31340   0.74670   Biso      1.000     H          0.138907  
         H33       1.0000    0.67520   0.27200   0.73530   Biso      1.000     H          0.154255  
         H34       1.0000    0.53060   0.82470   0.45950   Biso      1.000     H          0.084273  
         H35       1.0000    0.19030   0.96080   0.70530   Biso      1.000     H          0.09500700000000001           
         H36       1.0000    0.10390   0.80100   0.43810   Biso      1.000     H          0.09647   
         H37       1.0000    0.53790   0.41580   0.20420   Biso      1.000     H          0.10984100000000001           
         H38       1.0000    0.53790   0.91580   0.29580   Biso      1.000     H          0.10984100000000001           
         H39       1.0000    0.53060   0.32470   0.04050   Biso      1.000     H          0.084273  
         H40       1.0000    0.67520   0.77200   0.76470   Biso      1.000     H          0.154255  
         H41       1.0000    0.95960   0.50850   0.58520   Biso      1.000     H          0.108727  
         H42       1.0000    0.82440   0.81340   0.75330   Biso      1.000     H          0.138907  
         H43       1.0000    0.55610   0.35090   0.65330   Biso      1.000     H          0.10794000000000001           
         H44       1.0000    0.57080   0.43370   0.56090   Biso      1.000     H          0.123253  
         H45       1.0000    0.80970   0.53920   0.20530   Biso      1.000     H          0.09500700000000001           
         H46       1.0000    0.75700   0.43750   0.36630   Biso      1.000     H          0.10263299999999999           
         H47       1.0000    0.11030   0.91560   0.28060   Biso      1.000     H          0.102242  
         H48       1.0000    0.94560   0.42880   0.67880   Biso      1.000     H          0.10593499999999999           
         N1        1.0000    0.78610   0.44830   0.27700   Biso      1.000     N          -0.29782800000000004          
         N2        1.0000    0.64450   0.78740   0.39220   Biso      1.000     N          -0.20483  
         N3        1.0000    0.96910   0.82030   0.31870   Biso      1.000     N          -0.190442           
         N4        1.0000    0.96780   0.77960   0.37530   Biso      1.000     N          -0.21079699999999998          
         N5        1.0000    0.15800   0.88010   0.36420   Biso      1.000     N          -0.27884200000000003          
         N6        1.0000    0.64780   0.81980   0.33380   Biso      1.000     N          -0.18825699999999998          
         N7        1.0000    0.49940   0.89570   0.38330   Biso      1.000     N          -0.281104           
         N8        1.0000    0.84200   0.61990   0.86420   Biso      1.000     N          -0.27884200000000003          
         N9        1.0000    0.23440   0.92080   0.83710   Biso      1.000     N          -0.179155           
         N10       1.0000    0.21390   0.05170   0.77700   Biso      1.000     N          -0.29782800000000004          
         N11       1.0000    0.03090   0.67970   0.81870   Biso      1.000     N          -0.190442           
         N12       1.0000    0.03220   0.72040   0.87530   Biso      1.000     N          -0.21079699999999998          
         N13       1.0000    0.35220   0.68020   0.83380   Biso      1.000     N          -0.18826600000000002          
         N14       1.0000    0.35550   0.71260   0.89220   Biso      1.000     N          -0.20481999999999997          
         N15       1.0000    0.50060   0.60430   0.88330   Biso      1.000     N          -0.281104           
         N16       1.0000    0.76560   0.57920   0.33710   Biso      1.000     N          -0.17915599999999998          
         N17       1.0000    0.21570   0.88390   0.77960   Biso      1.000     N          -0.183652           
         N18       1.0000    0.78430   0.61610   0.27960   Biso      1.000     N          -0.183652           
         N19       1.0000    0.78610   0.94830   0.22300   Biso      1.000     N          -0.29782800000000004          
         N20       1.0000    0.64450   0.28740   0.10780   Biso      1.000     N          -0.20483  
         N21       1.0000    0.49940   0.39570   0.11670   Biso      1.000     N          -0.281104           
         N22       1.0000    0.21570   0.38390   0.72040   Biso      1.000     N          -0.18365599999999999          
         N23       1.0000    0.23440   0.42080   0.66290   Biso      1.000     N          -0.179151           
         N24       1.0000    0.21390   0.55170   0.72300   Biso      1.000     N          -0.29782800000000004          
         N25       1.0000    0.03090   0.17970   0.68130   Biso      1.000     N          -0.190442           
         N26       1.0000    0.84200   0.11990   0.63580   Biso      1.000     N          -0.27884200000000003          
         N27       1.0000    0.35220   0.18020   0.66620   Biso      1.000     N          -0.18826600000000002          
         N28       1.0000    0.03220   0.22040   0.62470   Biso      1.000     N          -0.21079699999999998          
         N29       1.0000    0.50060   0.10430   0.61670   Biso      1.000     N          -0.281104           
         N30       1.0000    0.78430   0.11610   0.22040   Biso      1.000     N          -0.18365599999999999          
         N31       1.0000    0.76560   0.07920   0.16290   Biso      1.000     N          -0.179152           
         N32       1.0000    0.96910   0.32030   0.18130   Biso      1.000     N          -0.190442           
         N33       1.0000    0.96780   0.27960   0.12470   Biso      1.000     N          -0.21079699999999998          
         N34       1.0000    0.15800   0.38010   0.13580   Biso      1.000     N          -0.27884200000000003          
         N35       1.0000    0.64780   0.31980   0.16620   Biso      1.000     N          -0.18825699999999998          
         N36       1.0000    0.35550   0.21260   0.60780   Biso      1.000     N          -0.20481999999999997          
         O1        1.0000    0.67390   0.56370   0.48490   Biso      1.000     O          -0.554607           
         O2        1.0000    0.11080   0.92020   0.98920   Biso      1.000     O          -0.547454           
         O3        1.0000    0.32610   0.93630   0.98490   Biso      1.000     O          -0.554607           
         O4        1.0000    0.72990   0.38280   0.83780   Biso      1.000     O          -0.563916           
         O5        1.0000    0.63650   0.47420   0.77360   Biso      1.000     O          -0.584802           
         O6        1.0000    0.88920   0.57980   0.48920   Biso      1.000     O          -0.547454           
         O7        1.0000    0.72990   0.88280   0.66220   Biso      1.000     O          -0.563916           
         O8        1.0000    0.36350   0.02580   0.27360   Biso      1.000     O          -0.584802           
         O9        1.0000    0.88920   0.07980   0.01080   Biso      1.000     O          -0.547454           
         O10       1.0000    0.67390   0.06370   0.01510   Biso      1.000     O          -0.554607           
         O11       1.0000    0.27010   0.61720   0.16220   Biso      1.000     O          -0.563916           
         O12       1.0000    0.36350   0.52580   0.22640   Biso      1.000     O          -0.584803           
         O13       1.0000    0.11080   0.42020   0.51080   Biso      1.000     O          -0.547454           
         O14       1.0000    0.32610   0.43630   0.51510   Biso      1.000     O          -0.554607           
         O15       1.0000    0.63650   0.97420   0.72640   Biso      1.000     O          -0.584802           
         O16       1.0000    0.27010   0.11720   0.33780   Biso      1.000     O          -0.563916 