
##########################################################################
#               Crystallographic Information Format file
#               Produced by PyCifRW module
#
#  This is a CIF file.  CIF has been adopted by the International
#  Union of Crystallography as the standard for data archiving and
#  transmission.
#
#  For information on this file format, follow the CIF links at
#  http://www.iucr.org
##########################################################################

data_image0

_cell_length_a                          15.2135
_cell_length_b                          15.2135
_cell_length_c                          15.2135
_cell_angle_alpha                       60
_cell_angle_beta                        60
_cell_angle_gamma                       60
_symmetry_space_group_name_H-M          'P 1'
_symmetry_int_tables_number             1
loop_
  _symmetry_equiv_pos_as_xyz
         'x, y, z' 
loop_
  _atom_site_label
  _atom_site_occupancy
  _atom_site_fract_x
  _atom_site_fract_y
  _atom_site_fract_z
  _atom_site_thermal_displace_type
  _atom_site_B_iso_or_equiv
  _atom_site_type_symbol
  _atom_site_charge
         C1        1.0000    0.00000   0.69020   0.30980   Biso      1.000     C          0.667303  
         C2        1.0000    0.59160   0.00000   0.00000   Biso      1.000     C          -0.032355           
         C3        1.0000    0.69020   0.00000   0.00000   Biso      1.000     C          0.6680560000000001  
         C4        1.0000    0.00000   0.59160   0.40840   Biso      1.000     C          -0.030848           
         C5        1.0000    0.08130   0.91870   0.54630   Biso      1.000     C          -0.102799           
         C6        1.0000    0.45370   0.54630   0.91870   Biso      1.000     C          -0.10330999999999999          
         C7        1.0000    0.54630   0.45370   0.08130   Biso      1.000     C          -0.10304300000000001          
         C8        1.0000    0.91870   0.08130   0.45370   Biso      1.000     C          -0.103103           
         C9        1.0000    0.45370   0.91870   0.08130   Biso      1.000     C          -0.102777           
         C10       1.0000    0.08130   0.54630   0.45370   Biso      1.000     C          -0.10308699999999998          
         C11       1.0000    0.91870   0.45370   0.54630   Biso      1.000     C          -0.10297100000000001          
         C12       1.0000    0.54630   0.08130   0.91870   Biso      1.000     C          -0.103371           
         C13       1.0000    0.54630   0.91870   0.45370   Biso      1.000     C          -0.10266700000000001          
         C14       1.0000    0.08130   0.45370   0.91870   Biso      1.000     C          -0.103603           
         C15       1.0000    0.45370   0.08130   0.54630   Biso      1.000     C          -0.10308800000000001          
         C16       1.0000    0.08130   0.91870   0.45370   Biso      1.000     C          -0.10269500000000001          
         C17       1.0000    0.30980   0.00000   0.00000   Biso      1.000     C          0.668096  
         C18       1.0000    0.40840   0.00000   0.00000   Biso      1.000     C          -0.03179  
         C19       1.0000    0.00000   0.30980   0.69020   Biso      1.000     C          0.66874   
         C20       1.0000    0.00000   0.40840   0.59160   Biso      1.000     C          -0.033298           
         C21       1.0000    0.00000   0.00000   0.40840   Biso      1.000     C          -0.031888           
         C22       1.0000    0.00000   0.00000   0.30980   Biso      1.000     C          0.669269  
         C23       1.0000    0.40840   0.59160   0.00000   Biso      1.000     C          -0.031152999999999997         
         C24       1.0000    0.30980   0.69020   0.00000   Biso      1.000     C          0.6681520000000001  
         C25       1.0000    0.59160   0.40840   0.00000   Biso      1.000     C          -0.032831           
         C26       1.0000    0.69020   0.30980   0.00000   Biso      1.000     C          0.668589  
         C27       1.0000    0.00000   0.00000   0.59160   Biso      1.000     C          -0.032060000000000005         
         C28       1.0000    0.45370   0.54630   0.08130   Biso      1.000     C          -0.103216           
         C29       1.0000    0.00000   0.00000   0.69020   Biso      1.000     C          0.668403  
         C30       1.0000    0.00000   0.69020   0.00000   Biso      1.000     C          0.668612  
         C31       1.0000    0.40840   0.00000   0.59160   Biso      1.000     C          -0.031966           
         C32       1.0000    0.30980   0.00000   0.69020   Biso      1.000     C          0.66896   
         C33       1.0000    0.59160   0.00000   0.40840   Biso      1.000     C          -0.032026           
         C34       1.0000    0.69020   0.00000   0.30980   Biso      1.000     C          0.669195  
         C35       1.0000    0.00000   0.40840   0.00000   Biso      1.000     C          -0.032472           
         C36       1.0000    0.00000   0.30980   0.00000   Biso      1.000     C          0.6682680000000001  
         C37       1.0000    0.00000   0.59160   0.00000   Biso      1.000     C          -0.031639           
         C38       1.0000    0.54630   0.45370   0.91870   Biso      1.000     C          -0.10351099999999999          
         C39       1.0000    0.91870   0.54630   0.08130   Biso      1.000     C          -0.10328599999999999          
         C40       1.0000    0.08130   0.54630   0.91870   Biso      1.000     C          -0.103125           
         C41       1.0000    0.45370   0.91870   0.54630   Biso      1.000     C          -0.102549           
         C42       1.0000    0.54630   0.08130   0.45370   Biso      1.000     C          -0.102815           
         C43       1.0000    0.91870   0.45370   0.08130   Biso      1.000     C          -0.103272           
         C44       1.0000    0.08130   0.45370   0.54630   Biso      1.000     C          -0.102841           
         C45       1.0000    0.45370   0.08130   0.91870   Biso      1.000     C          -0.10340099999999999          
         C46       1.0000    0.54630   0.91870   0.08130   Biso      1.000     C          -0.102851           
         C47       1.0000    0.91870   0.54630   0.45370   Biso      1.000     C          -0.103333           
         C48       1.0000    0.91870   0.08130   0.54630   Biso      1.000     C          -0.10358099999999999          
         H1        1.0000    0.42170   0.57830   0.13568   Biso      1.000     H          0.125477  
         H2        1.0000    0.57830   0.42170   0.86432   Biso      1.000     H          0.125142  
         H3        1.0000    0.13568   0.57830   0.86432   Biso      1.000     H          0.12541300000000002           
         H4        1.0000    0.42170   0.86432   0.57830   Biso      1.000     H          0.12566   
         H5        1.0000    0.42170   0.13568   0.86432   Biso      1.000     H          0.12534700000000001           
         H6        1.0000    0.86432   0.42170   0.13568   Biso      1.000     H          0.12528   
         H7        1.0000    0.13568   0.42170   0.57830   Biso      1.000     H          0.12537   
         H8        1.0000    0.13568   0.86432   0.42170   Biso      1.000     H          0.125607  
         H9        1.0000    0.57830   0.86432   0.13568   Biso      1.000     H          0.12556099999999998           
         H10       1.0000    0.86432   0.57830   0.42170   Biso      1.000     H          0.12553699999999998           
         H11       1.0000    0.57830   0.13568   0.42170   Biso      1.000     H          0.125507  
         H12       1.0000    0.42170   0.13568   0.57830   Biso      1.000     H          0.125426  
         H13       1.0000    0.86432   0.13568   0.57830   Biso      1.000     H          0.12525   
         H14       1.0000    0.86432   0.57830   0.13568   Biso      1.000     H          0.125371  
         H15       1.0000    0.13568   0.42170   0.86432   Biso      1.000     H          0.125172  
         H16       1.0000    0.13568   0.86432   0.57830   Biso      1.000     H          0.12562   
         H17       1.0000    0.57830   0.42170   0.13568   Biso      1.000     H          0.12534800000000001           
         H18       1.0000    0.86432   0.13568   0.42170   Biso      1.000     H          0.125423  
         H19       1.0000    0.42170   0.86432   0.13568   Biso      1.000     H          0.125646  
         H20       1.0000    0.42170   0.57830   0.86432   Biso      1.000     H          0.125453  
         H21       1.0000    0.86432   0.42170   0.57830   Biso      1.000     H          0.12529200000000001           
         H22       1.0000    0.57830   0.13568   0.86432   Biso      1.000     H          0.125277  
         H23       1.0000    0.57830   0.86432   0.42170   Biso      1.000     H          0.125602  
         H24       1.0000    0.13568   0.57830   0.42170   Biso      1.000     H          0.125632  
         O1        1.0000    0.92530   0.72710   0.07470   Biso      1.000     O          -0.625933           
         O2        1.0000    0.92530   0.07470   0.27290   Biso      1.000     O          -0.624768           
         O3        1.0000    0.72710   0.92530   0.27290   Biso      1.000     O          -0.6248229999999999           
         O4        1.0000    0.72710   0.07470   0.92530   Biso      1.000     O          -0.62259  
         O5        1.0000    0.92530   0.27290   0.72710   Biso      1.000     O          -0.622266           
         O6        1.0000    0.07470   0.72710   0.27290   Biso      1.000     O          -0.625116           
         O7        1.0000    0.27290   0.92530   0.07470   Biso      1.000     O          -0.62505  
         O8        1.0000    0.72710   0.27290   0.07470   Biso      1.000     O          -0.624884           
         O9        1.0000    0.06010   0.06010   0.06010   Biso      1.000     O          -1.092502           
         O10       1.0000    0.07470   0.92530   0.72710   Biso      1.000     O          -0.6254430000000001           
         O11       1.0000    0.18030   0.93990   0.93990   Biso      1.000     O          -1.0920450000000002           
         O12       1.0000    0.93990   0.18030   0.93990   Biso      1.000     O          -1.09233  
         O13       1.0000    0.06010   0.06010   0.81970   Biso      1.000     O          -1.093541           
         O14       1.0000    0.06010   0.81970   0.06010   Biso      1.000     O          -1.0909719999999998           
         O15       1.0000    0.07470   0.27290   0.92530   Biso      1.000     O          -0.623848           
         O16       1.0000    0.81970   0.06010   0.06010   Biso      1.000     O          -1.092538           
         O17       1.0000    0.27290   0.72710   0.92530   Biso      1.000     O          -0.6257590000000001           
         O18       1.0000    0.27290   0.07470   0.72710   Biso      1.000     O          -0.623434           
         O19       1.0000    0.93990   0.93990   0.93990   Biso      1.000     O          -1.092415           
         O20       1.0000    0.27290   0.72710   0.07470   Biso      1.000     O          -0.6261979999999999           
         O21       1.0000    0.93990   0.93990   0.18030   Biso      1.000     O          -1.0920040000000002           
         O22       1.0000    0.92530   0.72710   0.27290   Biso      1.000     O          -0.624197           
         O23       1.0000    0.07470   0.92530   0.27290   Biso      1.000     O          -0.625918           
         O24       1.0000    0.27290   0.07470   0.92530   Biso      1.000     O          -0.6232449999999999           
         O25       1.0000    0.07470   0.27290   0.72710   Biso      1.000     O          -0.622789           
         O26       1.0000    0.72710   0.92530   0.07470   Biso      1.000     O          -0.624063           
         O27       1.0000    0.72710   0.07470   0.27290   Biso      1.000     O          -0.624055           
         O28       1.0000    0.27290   0.92530   0.72710   Biso      1.000     O          -0.6250760000000001           
         O29       1.0000    0.07470   0.72710   0.92530   Biso      1.000     O          -0.626449           
         O30       1.0000    0.92530   0.07470   0.72710   Biso      1.000     O          -0.622947           
         O31       1.0000    0.72710   0.27290   0.92530   Biso      1.000     O          -0.6230479999999999           
         O32       1.0000    0.92530   0.27290   0.07470   Biso      1.000     O          -0.6248090000000001           
         U1        1.0000    0.12601   0.87399   0.12601   Biso      1.000     U          2.588948  
         U2        1.0000    0.87399   0.12601   0.87399   Biso      1.000     U          2.596196  
         U3        1.0000    0.12601   0.87399   0.87399   Biso      1.000     U          2.5894209999999998  
         U4        1.0000    0.87399   0.12601   0.12601   Biso      1.000     U          2.5923439999999998  
         U5        1.0000    0.12601   0.12601   0.87399   Biso      1.000     U          2.5943389999999997  
         U6        1.0000    0.87399   0.87399   0.12601   Biso      1.000     U          2.5903709999999998 