
##########################################################################
#               Crystallographic Information Format file
#               Produced by PyCifRW module
#
#  This is a CIF file.  CIF has been adopted by the International
#  Union of Crystallography as the standard for data archiving and
#  transmission.
#
#  For information on this file format, follow the CIF links at
#  http://www.iucr.org
##########################################################################

data_image0

_cell_length_a                          9.2133
_cell_length_b                          14.5187
_cell_length_c                          20.6486
_cell_angle_alpha                       110.583
_cell_angle_beta                        97.6742
_cell_angle_gamma                       90
_symmetry_space_group_name_H-M          'P 1'
_symmetry_int_tables_number             1
loop_
  _symmetry_equiv_pos_as_xyz
         'x, y, z' 
loop_
  _atom_site_label
  _atom_site_occupancy
  _atom_site_fract_x
  _atom_site_fract_y
  _atom_site_fract_z
  _atom_site_thermal_displace_type
  _atom_site_B_iso_or_equiv
  _atom_site_type_symbol
  _atom_site_charge
         C1        1.0000    0.88660   0.14957   0.19934   Biso      1.000     C          0.122596  
         C2        1.0000    0.99560   0.40013   0.46106   Biso      1.000     C          -0.123841           
         C3        1.0000    0.06780   0.36327   0.10934   Biso      1.000     C          0.557056  
         C4        1.0000    0.16290   0.34089   0.05318   Biso      1.000     C          -0.012494           
         C5        1.0000    0.31320   0.34909   0.06898   Biso      1.000     C          -0.126042           
         C6        1.0000    0.09970   0.30592   0.98324   Biso      1.000     C          -0.118189           
         C7        1.0000    0.60460   0.47186   0.25072   Biso      1.000     C          0.074134  
         C8        1.0000    0.64430   0.50027   0.15954   Biso      1.000     C          -0.040898           
         C9        1.0000    0.53410   0.55575   0.18530   Biso      1.000     C          -0.111537           
         C10       1.0000    0.39230   0.57646   0.28572   Biso      1.000     C          -0.163363           
         C11       1.0000    0.43620   0.59413   0.36146   Biso      1.000     C          0.105291  
         C12       1.0000    0.56820   0.64108   0.39776   Biso      1.000     C          -0.149953           
         C13       1.0000    0.97930   0.56600   0.46600   Biso      1.000     C          -0.111077           
         C14       1.0000    0.59930   0.66506   0.46932   Biso      1.000     C          -0.137002           
         C15       1.0000    0.36940   0.59134   0.46988   Biso      1.000     C          -0.134156           
         C16       1.0000    0.33780   0.56793   0.39866   Biso      1.000     C          -0.148126           
         C17       1.0000    0.52700   0.67448   0.58396   Biso      1.000     C          0.071246  
         C18       1.0000    0.66830   0.68181   0.62022   Biso      1.000     C          -0.129298           
         C19       1.0000    0.69350   0.71466   0.69232   Biso      1.000     C          -0.142892           
         C20       1.0000    0.57930   0.74076   0.73092   Biso      1.000     C          0.09506   
         C21       1.0000    0.43980   0.73350   0.69640   Biso      1.000     C          -0.159404           
         C22       1.0000    0.41410   0.70102   0.62444   Biso      1.000     C          -0.132809           
         C23       1.0000    0.60930   0.78318   0.81036   Biso      1.000     C          -0.164039           
         C24       1.0000    0.61340   0.95023   0.80066   Biso      1.000     C          0.12173   
         C25       1.0000    0.73760   0.03750   0.89860   Biso      1.000     C          -0.067615           
         C26       1.0000    0.49830   0.64221   0.50722   Biso      1.000     C          0.065114  
         C27       1.0000    0.73260   0.94360   0.89640   Biso      1.000     C          -0.13624  
         C28       1.0000    0.97650   0.46727   0.42774   Biso      1.000     C          -0.015988           
         C29       1.0000    0.76740   0.04720   0.10360   Biso      1.000     C          -0.136681           
         C30       1.0000    0.16220   0.16927   0.60134   Biso      1.000     C          -0.14803  
         C31       1.0000    0.13060   0.12146   0.53012   Biso      1.000     C          -0.134103           
         C32       1.0000    0.00170   0.13499   0.49278   Biso      1.000     C          0.066283  
         C33       1.0000    0.90070   0.19574   0.53068   Biso      1.000     C          -0.137527           
         C34       1.0000    0.93180   0.24332   0.60224   Biso      1.000     C          -0.150297           
         C35       1.0000    0.06380   0.23267   0.63854   Biso      1.000     C          0.106132  
         C36       1.0000    0.10770   0.29074   0.71428   Biso      1.000     C          -0.161808           
         C37       1.0000    0.96590   0.37045   0.81470   Biso      1.000     C          -0.111027           
         C38       1.0000    0.85570   0.34073   0.84046   Biso      1.000     C          -0.041146           
         C39       1.0000    0.89540   0.22114   0.74928   Biso      1.000     C          0.074722  
         C40       1.0000    0.40030   0.32268   0.01676   Biso      1.000     C          -0.117482           
         C41       1.0000    0.95330   0.43248   0.34876   Biso      1.000     C          0.56577   
         C42       1.0000    0.18680   0.28011   0.93102   Biso      1.000     C          -0.124606           
         C43       1.0000    0.43220   0.25393   0.89066   Biso      1.000     C          0.55602   
         C44       1.0000    0.50440   0.93907   0.53894   Biso      1.000     C          -0.123666           
         C45       1.0000    0.52070   0.10000   0.53400   Biso      1.000     C          -0.11071  
         C46       1.0000    0.52350   0.03953   0.57226   Biso      1.000     C          -0.016538           
         C47       1.0000    0.54670   0.08372   0.65124   Biso      1.000     C          0.566172  
         C48       1.0000    0.80650   0.02234   0.30768   Biso      1.000     C          -0.141474           
         C49       1.0000    0.92070   0.00984   0.26908   Biso      1.000     C          0.094013  
         C50       1.0000    0.06020   0.03710   0.30360   Biso      1.000     C          -0.158947           
         C51       1.0000    0.08590   0.07658   0.37556   Biso      1.000     C          -0.132534           
         C52       1.0000    0.89070   0.97282   0.18964   Biso      1.000     C          -0.165014           
         C53       1.0000    0.76240   0.13890   0.10140   Biso      1.000     C          -0.069893           
         C54       1.0000    0.33710   0.28771   0.94682   Biso      1.000     C          -0.012652           
         C55       1.0000    0.45330   0.91628   0.34876   Biso      1.000     C          0.566173  
         C56       1.0000    0.47650   0.96047   0.42774   Biso      1.000     C          -0.01655  
         C57       1.0000    0.47930   0.90000   0.46600   Biso      1.000     C          -0.110697           
         C58       1.0000    0.93220   0.63673   0.89066   Biso      1.000     C          0.557056  
         C59       1.0000    0.83710   0.65911   0.94682   Biso      1.000     C          -0.012494           
         C60       1.0000    0.68680   0.65091   0.93102   Biso      1.000     C          -0.126042           
         C61       1.0000    0.90030   0.69408   0.01676   Biso      1.000     C          -0.118189           
         C62       1.0000    0.39540   0.52814   0.74928   Biso      1.000     C          0.074134  
         C63       1.0000    0.35570   0.49973   0.84046   Biso      1.000     C          -0.040897           
         C64       1.0000    0.46590   0.44425   0.81470   Biso      1.000     C          -0.111537           
         C65       1.0000    0.60770   0.42354   0.71428   Biso      1.000     C          -0.163363           
         C66       1.0000    0.56380   0.40587   0.63854   Biso      1.000     C          0.105292  
         C67       1.0000    0.43180   0.35892   0.60224   Biso      1.000     C          -0.149953           
         C68       1.0000    0.40070   0.33494   0.53068   Biso      1.000     C          -0.137002           
         C69       1.0000    0.00440   0.59987   0.53894   Biso      1.000     C          -0.123841           
         C70       1.0000    0.50170   0.35779   0.49278   Biso      1.000     C          0.065112  
         C71       1.0000    0.66220   0.43207   0.60134   Biso      1.000     C          -0.148135           
         C72       1.0000    0.47300   0.32552   0.41604   Biso      1.000     C          0.071246  
         C73       1.0000    0.33170   0.31819   0.37978   Biso      1.000     C          -0.129298           
         C74       1.0000    0.30650   0.28534   0.30768   Biso      1.000     C          -0.142892           
         C75       1.0000    0.42070   0.25924   0.26908   Biso      1.000     C          0.09506   
         C76       1.0000    0.56020   0.26650   0.30360   Biso      1.000     C          -0.159404           
         C77       1.0000    0.58590   0.29898   0.37556   Biso      1.000     C          -0.132809           
         C78       1.0000    0.39070   0.21682   0.18964   Biso      1.000     C          -0.164039           
         C79       1.0000    0.38660   0.04977   0.19934   Biso      1.000     C          0.12173   
         C80       1.0000    0.26240   0.96250   0.10140   Biso      1.000     C          -0.067615           
         C81       1.0000    0.26740   0.05640   0.10360   Biso      1.000     C          -0.13624  
         C82       1.0000    0.63060   0.40866   0.53012   Biso      1.000     C          -0.134146           
         C83       1.0000    0.02070   0.43400   0.53400   Biso      1.000     C          -0.111077           
         C84       1.0000    0.02350   0.53273   0.57226   Biso      1.000     C          -0.015988           
         C85       1.0000    0.04670   0.56752   0.65124   Biso      1.000     C          0.56577   
         C86       1.0000    0.49560   0.06093   0.46106   Biso      1.000     C          -0.123664           
         C87       1.0000    0.56780   0.74607   0.10934   Biso      1.000     C          0.55602   
         C88       1.0000    0.66290   0.71229   0.05318   Biso      1.000     C          -0.012652           
         C89       1.0000    0.81320   0.71989   0.06898   Biso      1.000     C          -0.124607           
         C90       1.0000    0.59970   0.67732   0.98324   Biso      1.000     C          -0.117482           
         C91       1.0000    0.10460   0.77886   0.25072   Biso      1.000     C          0.074722  
         C92       1.0000    0.14430   0.65927   0.15954   Biso      1.000     C          -0.041172           
         C93       1.0000    0.03410   0.62955   0.18530   Biso      1.000     C          -0.111    
         C94       1.0000    0.89230   0.70926   0.28572   Biso      1.000     C          -0.161808           
         C95       1.0000    0.93620   0.76733   0.36146   Biso      1.000     C          0.106129  
         C96       1.0000    0.06820   0.75668   0.39776   Biso      1.000     C          -0.150294           
         C97       1.0000    0.09930   0.80426   0.46932   Biso      1.000     C          -0.137528           
         C98       1.0000    0.99830   0.86501   0.50722   Biso      1.000     C          0.066283  
         C99       1.0000    0.86940   0.87854   0.46988   Biso      1.000     C          -0.13411  
         C100      1.0000    0.83780   0.83073   0.39866   Biso      1.000     C          -0.148022           
         C101      1.0000    0.02700   0.90948   0.58396   Biso      1.000     C          0.070561  
         C102      1.0000    0.16830   0.93841   0.62022   Biso      1.000     C          -0.13028  
         C103      1.0000    0.19350   0.97766   0.69232   Biso      1.000     C          -0.141463           
         C104      1.0000    0.07930   0.99016   0.73092   Biso      1.000     C          0.094012  
         C105      1.0000    0.93980   0.96290   0.69640   Biso      1.000     C          -0.158946           
         C106      1.0000    0.91410   0.92342   0.62444   Biso      1.000     C          -0.132534           
         C107      1.0000    0.10930   0.02718   0.81036   Biso      1.000     C          -0.165014           
         C108      1.0000    0.11340   0.85043   0.80066   Biso      1.000     C          0.122596  
         C109      1.0000    0.23760   0.86110   0.89860   Biso      1.000     C          -0.069912           
         C110      1.0000    0.23260   0.95280   0.89640   Biso      1.000     C          -0.136662           
         C111      1.0000    0.97300   0.09052   0.41604   Biso      1.000     C          0.07056   
         C112      1.0000    0.83170   0.06159   0.37978   Biso      1.000     C          -0.130269           
         Cd1       1.0000    0.60119   0.16238   0.79254   Biso      1.000     Cd          0.82838   
         Cd2       1.0000    0.89881   0.36984   0.20746   Biso      1.000     Cd          0.828292  
         Cd3       1.0000    0.39881   0.83762   0.20746   Biso      1.000     Cd          0.82838   
         Cd4       1.0000    0.10119   0.63016   0.79254   Biso      1.000     Cd          0.828292  
         H1        1.0000    0.21580   0.90680   0.06320   Biso      1.000     H          0.126318  
         H2        1.0000    0.96440   0.61090   0.44320   Biso      1.000     H          0.110377  
         H3        1.0000    0.99190   0.33290   0.43520   Biso      1.000     H          0.113909  
         H4        1.0000    0.35650   0.37280   0.11540   Biso      1.000     H          0.108194  
         H5        1.0000    0.99810   0.30000   0.97180   Biso      1.000     H          0.117189  
         H6        1.0000    0.21250   0.08300   0.07200   Biso      1.000     H          0.136972  
         H7        1.0000    0.68400   0.49840   0.12000   Biso      1.000     H          0.127371  
         H8        1.0000    0.48500   0.59920   0.16720   Biso      1.000     H          0.128173  
         H9        1.0000    0.36370   0.63810   0.28060   Biso      1.000     H          0.132495  
         H10       1.0000    0.30720   0.53070   0.26840   Biso      1.000     H          0.126079  
         H11       1.0000    0.68890   0.69690   0.49280   Biso      1.000     H          0.111663  
         H12       1.0000    0.71250   0.98900   0.07200   Biso      1.000     H          0.136982  
         H13       1.0000    0.30240   0.57250   0.49340   Biso      1.000     H          0.110241  
         H14       1.0000    0.24960   0.53410   0.37500   Biso      1.000     H          0.115404  
         H15       1.0000    0.74710   0.66410   0.59520   Biso      1.000     H          0.106873  
         H16       1.0000    0.78880   0.71930   0.71520   Biso      1.000     H          0.116307  
         H17       1.0000    0.36150   0.75070   0.72180   Biso      1.000     H          0.11183   
         H18       1.0000    0.31830   0.69660   0.60220   Biso      1.000     H          0.111211  
         H19       1.0000    0.69370   0.75310   0.82660   Biso      1.000     H          0.12681   
         H20       1.0000    0.63710   0.65690   0.37380   Biso      1.000     H          0.113063  
         H21       1.0000    0.71580   0.15640   0.06320   Biso      1.000     H          0.127365  
         H22       1.0000    0.97450   0.93880   0.17040   Biso      1.000     H          0.113413  
         H23       1.0000    0.52550   0.76840   0.82960   Biso      1.000     H          0.113509  
         H24       1.0000    0.53560   0.16770   0.55680   Biso      1.000     H          0.110228  
         H25       1.0000    0.50810   0.89770   0.56480   Biso      1.000     H          0.113845  
         H26       1.0000    0.14350   0.25740   0.88460   Biso      1.000     H          0.107861  
         H27       1.0000    0.50190   0.32820   0.02820   Biso      1.000     H          0.117291  
         H28       1.0000    0.88780   0.16030   0.71300   Biso      1.000     H          0.098965  
         H29       1.0000    0.81600   0.37840   0.88000   Biso      1.000     H          0.127122  
         H30       1.0000    0.01500   0.43200   0.83280   Biso      1.000     H          0.128239  
         H31       1.0000    0.13630   0.35750   0.71940   Biso      1.000     H          0.132138  
         H32       1.0000    0.92420   0.17540   0.24660   Biso      1.000     H          0.09836   
         H33       1.0000    0.19280   0.26230   0.73160   Biso      1.000     H          0.12572   
         H34       1.0000    0.81110   0.20410   0.50720   Biso      1.000     H          0.111537  
         H35       1.0000    0.19760   0.07910   0.50660   Biso      1.000     H          0.109901  
         H36       1.0000    0.25040   0.15910   0.62500   Biso      1.000     H          0.1152    
         H37       1.0000    0.75290   0.06890   0.40480   Biso      1.000     H          0.106688  
         H38       1.0000    0.71120   0.00410   0.28480   Biso      1.000     H          0.116419  
         H39       1.0000    0.13850   0.02890   0.27820   Biso      1.000     H          0.111452  
         H40       1.0000    0.18170   0.09440   0.39780   Biso      1.000     H          0.111249  
         H41       1.0000    0.80630   0.92650   0.17340   Biso      1.000     H          0.127203  
         H42       1.0000    0.86290   0.28310   0.62620   Biso      1.000     H          0.113216  
         H43       1.0000    0.57580   0.92880   0.75340   Biso      1.000     H          0.099493  
         H44       1.0000    0.61220   0.44730   0.28700   Biso      1.000     H          0.099196  
         H45       1.0000    0.78750   0.91700   0.92800   Biso      1.000     H          0.136972  
         H46       1.0000    0.00810   0.66710   0.56480   Biso      1.000     H          0.113909  
         H47       1.0000    0.64350   0.62720   0.88460   Biso      1.000     H          0.108194  
         H48       1.0000    0.00190   0.70000   0.02820   Biso      1.000     H          0.117189  
         H49       1.0000    0.38780   0.55270   0.71300   Biso      1.000     H          0.099196  
         H50       1.0000    0.31600   0.50160   0.88000   Biso      1.000     H          0.127372  
         H51       1.0000    0.51500   0.40080   0.83280   Biso      1.000     H          0.128173  
         H52       1.0000    0.63630   0.36190   0.71940   Biso      1.000     H          0.132495  
         H53       1.0000    0.69280   0.46930   0.73160   Biso      1.000     H          0.126079  
         H54       1.0000    0.36290   0.34310   0.62620   Biso      1.000     H          0.113063  
         H55       1.0000    0.31110   0.30310   0.50720   Biso      1.000     H          0.111663  
         H56       1.0000    0.69760   0.42750   0.50660   Biso      1.000     H          0.110241  
         H57       1.0000    0.75040   0.46590   0.62500   Biso      1.000     H          0.115404  
         H58       1.0000    0.25290   0.33590   0.40480   Biso      1.000     H          0.106873  
         H59       1.0000    0.78420   0.09320   0.93680   Biso      1.000     H          0.126318  
         H60       1.0000    0.63850   0.24930   0.27820   Biso      1.000     H          0.11183   
         H61       1.0000    0.68170   0.30340   0.39780   Biso      1.000     H          0.111211  
         H62       1.0000    0.30630   0.24690   0.17340   Biso      1.000     H          0.12681   
         H63       1.0000    0.47450   0.23160   0.17040   Biso      1.000     H          0.113509  
         H64       1.0000    0.42420   0.07120   0.24660   Biso      1.000     H          0.099493  
         H65       1.0000    0.03560   0.38910   0.55680   Biso      1.000     H          0.110377  
         H66       1.0000    0.28750   0.01100   0.92800   Biso      1.000     H          0.136981  
         H67       1.0000    0.21120   0.28070   0.28480   Biso      1.000     H          0.116307  
         H68       1.0000    0.07580   0.82460   0.75340   Biso      1.000     H          0.09836   
         H69       1.0000    0.28420   0.84360   0.93680   Biso      1.000     H          0.127367  
         H70       1.0000    0.46440   0.83230   0.44320   Biso      1.000     H          0.110227  
         H71       1.0000    0.49190   0.10230   0.43520   Biso      1.000     H          0.113844  
         H72       1.0000    0.85650   0.74260   0.11540   Biso      1.000     H          0.107861  
         H73       1.0000    0.49810   0.67180   0.97180   Biso      1.000     H          0.117291  
         H74       1.0000    0.11220   0.83970   0.28700   Biso      1.000     H          0.098965  
         H75       1.0000    0.98500   0.56800   0.16720   Biso      1.000     H          0.128237  
         H76       1.0000    0.86370   0.64250   0.28060   Biso      1.000     H          0.132138  
         H77       1.0000    0.80720   0.73770   0.26840   Biso      1.000     H          0.12572   
         H78       1.0000    0.18400   0.62160   0.12000   Biso      1.000     H          0.127123  
         H79       1.0000    0.18890   0.79590   0.49280   Biso      1.000     H          0.111537  
         H80       1.0000    0.02550   0.06120   0.82960   Biso      1.000     H          0.113413  
         H81       1.0000    0.19370   0.07350   0.82660   Biso      1.000     H          0.127203  
         H82       1.0000    0.13710   0.71690   0.37380   Biso      1.000     H          0.113216  
         H83       1.0000    0.86150   0.97110   0.72180   Biso      1.000     H          0.111452  
         H84       1.0000    0.81830   0.90560   0.60220   Biso      1.000     H          0.111249  
         H85       1.0000    0.24710   0.93110   0.59520   Biso      1.000     H          0.106688  
         H86       1.0000    0.74960   0.84090   0.37500   Biso      1.000     H          0.1152    
         H87       1.0000    0.80240   0.92090   0.49340   Biso      1.000     H          0.109902  
         H88       1.0000    0.28880   0.99590   0.71520   Biso      1.000     H          0.116419  
         N1        1.0000    0.36280   0.11102   0.16584   Biso      1.000     N          0.060161  
         N2        1.0000    0.00740   0.70591   0.24282   Biso      1.000     N          0.088105  
         N3        1.0000    0.35500   0.95796   0.16312   Biso      1.000     N          -0.301494           
         N4        1.0000    0.49260   0.46309   0.75718   Biso      1.000     N          0.089926  
         N5        1.0000    0.31170   0.55291   0.79922   Biso      1.000     N          -0.294647           
         N6        1.0000    0.13720   0.94518   0.83416   Biso      1.000     N          0.062346  
         N7        1.0000    0.14500   0.79484   0.83688   Biso      1.000     N          -0.300781           
         N8        1.0000    0.18830   0.75369   0.20078   Biso      1.000     N          -0.29408  
         N9        1.0000    0.50740   0.53691   0.24282   Biso      1.000     N          0.089926  
         N10       1.0000    0.64500   0.04204   0.83688   Biso      1.000     N          -0.301494           
         N11       1.0000    0.68830   0.44709   0.20078   Biso      1.000     N          -0.294647           
         N12       1.0000    0.86280   0.05482   0.16584   Biso      1.000     N          0.062348  
         N13       1.0000    0.85500   0.20516   0.16312   Biso      1.000     N          -0.300783           
         N14       1.0000    0.99260   0.29409   0.75718   Biso      1.000     N          0.088107  
         N15       1.0000    0.81170   0.24631   0.79922   Biso      1.000     N          -0.294083           
         N16       1.0000    0.63720   0.88898   0.83416   Biso      1.000     N          0.060161  
         O1        1.0000    0.03390   0.50623   0.68046   Biso      1.000     O          -0.570598           
         O2        1.0000    0.07720   0.65660   0.68500   Biso      1.000     O          -0.564502           
         O3        1.0000    0.62600   0.79908   0.17056   Biso      1.000     O          -0.582583           
         O4        1.0000    0.43460   0.72254   0.09648   Biso      1.000     O          -0.557842           
         O5        1.0000    0.46610   0.82577   0.31954   Biso      1.000     O          -0.570402           
         O6        1.0000    0.42280   0.97160   0.31500   Biso      1.000     O          -0.564788           
         O7        1.0000    0.12600   0.37148   0.17056   Biso      1.000     O          -0.583    
         O8        1.0000    0.92280   0.34340   0.31500   Biso      1.000     O          -0.564502           
         O9        1.0000    0.96610   0.49377   0.31954   Biso      1.000     O          -0.570598           
         O10       1.0000    0.37400   0.20092   0.82944   Biso      1.000     O          -0.582583           
         O11       1.0000    0.56540   0.27746   0.90352   Biso      1.000     O          -0.557843           
         O12       1.0000    0.53390   0.17423   0.68046   Biso      1.000     O          -0.570402           
         O13       1.0000    0.57720   0.02840   0.68500   Biso      1.000     O          -0.564788           
         O14       1.0000    0.06540   0.62606   0.90352   Biso      1.000     O          -0.558096           
         O15       1.0000    0.93460   0.37394   0.09648   Biso      1.000     O          -0.558096           
         O16       1.0000    0.87400   0.62852   0.82944   Biso      1.000     O          -0.583 