
##########################################################################
#               Crystallographic Information Format file
#               Produced by PyCifRW module
#
#  This is a CIF file.  CIF has been adopted by the International
#  Union of Crystallography as the standard for data archiving and
#  transmission.
#
#  For information on this file format, follow the CIF links at
#  http://www.iucr.org
##########################################################################

data_image0

_cell_length_a                          6.6627
_cell_length_b                          9.674
_cell_length_c                          10.7118
_cell_angle_alpha                       116.844
_cell_angle_beta                        104.874
_cell_angle_gamma                       90
_symmetry_space_group_name_H-M          'P 1'
_symmetry_int_tables_number             1
loop_
  _symmetry_equiv_pos_as_xyz
         'x, y, z' 
loop_
  _atom_site_label
  _atom_site_occupancy
  _atom_site_fract_x
  _atom_site_fract_y
  _atom_site_fract_z
  _atom_site_thermal_displace_type
  _atom_site_B_iso_or_equiv
  _atom_site_type_symbol
  _atom_site_charge
         C1        1.0000    0.49510   0.53890   0.75900   Biso      1.000     C          0.273651  
         C2        1.0000    0.21930   0.33010   0.37380   Biso      1.000     C          0.631349  
         C3        1.0000    0.62310   0.45020   0.94480   Biso      1.000     C          0.712929  
         C4        1.0000    0.74700   0.92940   0.95560   Biso      1.000     C          0.703005  
         C5        1.0000    0.63940   0.78670   0.82020   Biso      1.000     C          -0.187736           
         C6        1.0000    0.40050   0.50710   0.62040   Biso      1.000     C          -0.26337  
         C7        1.0000    0.32480   0.35930   0.52180   Biso      1.000     C          0.03709   
         C8        1.0000    0.34200   0.24320   0.55740   Biso      1.000     C          -0.114071           
         C9        1.0000    0.44230   0.27550   0.69280   Biso      1.000     C          -0.077612           
         C10       1.0000    0.51530   0.42470   0.79740   Biso      1.000     C          -0.172579           
         C11       1.0000    0.71930   0.04370   0.37380   Biso      1.000     C          0.629772  
         C12       1.0000    0.12310   0.49460   0.94480   Biso      1.000     C          0.714676  
         C13       1.0000    0.24700   0.02620   0.95560   Biso      1.000     C          0.700848  
         C14       1.0000    0.90050   0.11330   0.62040   Biso      1.000     C          -0.263936           
         C15       1.0000    0.82480   0.16250   0.52180   Biso      1.000     C          0.036999  
         C16       1.0000    0.13940   0.03350   0.82020   Biso      1.000     C          -0.188856           
         C17       1.0000    0.94230   0.41730   0.69280   Biso      1.000     C          -0.077454           
         C18       1.0000    0.01530   0.37270   0.79740   Biso      1.000     C          -0.173764           
         C19       1.0000    0.99510   0.22010   0.75900   Biso      1.000     C          0.273904  
         C20       1.0000    0.84200   0.31420   0.55740   Biso      1.000     C          -0.114503           
         H1        1.0000    0.96320   0.52250   0.71700   Biso      1.000     H          0.108416  
         H2        1.0000    0.78420   0.34670   0.48800   Biso      1.000     H          0.118519  
         H3        1.0000    0.88820   0.00730   0.59380   Biso      1.000     H          0.135782  
         H4        1.0000    0.02340   0.94970   0.76140   Biso      1.000     H          0.119219  
         H5        1.0000    0.46320   0.19450   0.71700   Biso      1.000     H          0.108079  
         H6        1.0000    0.23590   0.02310   0.76340   Biso      1.000     H          0.12817   
         H7        1.0000    0.38820   0.58650   0.59380   Biso      1.000     H          0.135604  
         H8        1.0000    0.52340   0.81170   0.76140   Biso      1.000     H          0.118957  
         H9        1.0000    0.73590   0.74030   0.76340   Biso      1.000     H          0.127438  
         H10       1.0000    0.28420   0.14130   0.48800   Biso      1.000     H          0.117673  
         O1        1.0000    0.63460   0.58140   0.04660   Biso      1.000     O          -0.707554           
         O2        1.0000    0.75730   0.91330   0.33160   Biso      1.000     O          -0.647847           
         O3        1.0000    0.69430   0.34370   0.95840   Biso      1.000     O          -0.678712           
         O4        1.0000    0.76030   0.92490   0.06840   Biso      1.000     O          -0.629967           
         O5        1.0000    0.81790   0.03130   0.94060   Biso      1.000     O          -0.646027           
         O6        1.0000    0.56610   0.68320   0.86200   Biso      1.000     O          -0.235886           
         O7        1.0000    0.58300   0.08220   0.29820   Biso      1.000     O          -0.668451           
         O8        1.0000    0.25730   0.41830   0.33160   Biso      1.000     O          -0.648222           
         O9        1.0000    0.13460   0.46520   0.04660   Biso      1.000     O          -0.708515           
         O10       1.0000    0.26030   0.14350   0.06840   Biso      1.000     O          -0.629026           
         O11       1.0000    0.31790   0.90930   0.94060   Biso      1.000     O          -0.644937           
         O12       1.0000    0.06610   0.17880   0.86200   Biso      1.000     O          -0.235577           
         O13       1.0000    0.08300   0.21600   0.29820   Biso      1.000     O          -0.669515           
         O14       1.0000    0.19430   0.61470   0.95840   Biso      1.000     O          -0.679175           
         Pr1       1.0000    0.47560   0.81210   0.10326   Biso      1.000     Pr          2.065526  
         Pr2       1.0000    0.97560   0.29116   0.10326   Biso      1.000     Pr          2.065685 