
##########################################################################
#               Crystallographic Information Format file
#               Produced by PyCifRW module
#
#  This is a CIF file.  CIF has been adopted by the International
#  Union of Crystallography as the standard for data archiving and
#  transmission.
#
#  For information on this file format, follow the CIF links at
#  http://www.iucr.org
##########################################################################

data_image0

_cell_length_a                          6.9059
_cell_length_b                          9.989
_cell_length_c                          11.0921
_cell_angle_alpha                       116.761
_cell_angle_beta                        104.274
_cell_angle_gamma                       90
_symmetry_space_group_name_H-M          'P 1'
_symmetry_int_tables_number             1
loop_
  _symmetry_equiv_pos_as_xyz
         'x, y, z' 
loop_
  _atom_site_label
  _atom_site_occupancy
  _atom_site_fract_x
  _atom_site_fract_y
  _atom_site_fract_z
  _atom_site_thermal_displace_type
  _atom_site_B_iso_or_equiv
  _atom_site_type_symbol
  _atom_site_charge
         C1        1.0000    0.92580   0.66300   0.64240   Biso      1.000     C          0.256624  
         C2        1.0000    0.01860   0.69360   0.77980   Biso      1.000     C          -0.252962           
         C3        1.0000    0.09420   0.84210   0.87960   Biso      1.000     C          0.042627  
         C4        1.0000    0.07790   0.95870   0.84300   Biso      1.000     C          -0.117813           
         C5        1.0000    0.97800   0.92540   0.70620   Biso      1.000     C          -0.080263           
         C6        1.0000    0.90400   0.77700   0.60240   Biso      1.000     C          -0.148014           
         C7        1.0000    0.79800   0.75060   0.45480   Biso      1.000     C          0.681037  
         C8        1.0000    0.70220   0.15550   0.02640   Biso      1.000     C          0.589679  
         C9        1.0000    0.29800   0.70420   0.45480   Biso      1.000     C          0.679639  
         C10       1.0000    0.16900   0.17070   0.44520   Biso      1.000     C          0.674698  
         C11       1.0000    0.27850   0.16670   0.58000   Biso      1.000     C          -0.168452           
         C12       1.0000    0.51860   0.08620   0.77980   Biso      1.000     C          -0.252576           
         C13       1.0000    0.59420   0.03750   0.87960   Biso      1.000     C          0.042179  
         C14       1.0000    0.57790   0.88430   0.84300   Biso      1.000     C          -0.118402           
         C15       1.0000    0.47800   0.78080   0.70620   Biso      1.000     C          -0.080757           
         C16       1.0000    0.40400   0.82540   0.60240   Biso      1.000     C          -0.147733           
         C17       1.0000    0.42580   0.97940   0.64240   Biso      1.000     C          0.256684  
         C18       1.0000    0.20220   0.87090   0.02640   Biso      1.000     C          0.590196  
         C19       1.0000    0.77850   0.41330   0.58000   Biso      1.000     C          -0.165143           
         C20       1.0000    0.66900   0.27450   0.44520   Biso      1.000     C          0.673096  
         H1        1.0000    0.89030   0.38620   0.63360   Biso      1.000     H          0.124005  
         H2        1.0000    0.68760   0.45840   0.63740   Biso      1.000     H          0.130416  
         H3        1.0000    0.03000   0.61610   0.80480   Biso      1.000     H          0.142284  
         H4        1.0000    0.13320   0.05720   0.90940   Biso      1.000     H          0.126226  
         H5        1.0000    0.95970   0.00390   0.68280   Biso      1.000     H          0.116186  
         H6        1.0000    0.39030   0.24740   0.63360   Biso      1.000     H          0.125525  
         H7        1.0000    0.18760   0.17900   0.63740   Biso      1.000     H          0.130879  
         H8        1.0000    0.53000   0.18870   0.80480   Biso      1.000     H          0.141926  
         H9        1.0000    0.63320   0.85220   0.90940   Biso      1.000     H          0.12686   
         H10       1.0000    0.45970   0.67890   0.68280   Biso      1.000     H          0.116331  
         Nd1       1.0000    0.44236   0.90850   0.29621   Biso      1.000     Nd          2.085324  
         Nd2       1.0000    0.94236   0.38771   0.29621   Biso      1.000     Nd          2.085668  
         O1        1.0000    0.35030   0.02190   0.53900   Biso      1.000     O          -0.260548           
         O2        1.0000    0.15650   0.05462   0.33064   Biso      1.000     O          -0.629286           
         O3        1.0000    0.10020   0.28898   0.45916   Biso      1.000     O          -0.647085           
         O4        1.0000    0.28460   0.73141   0.35122   Biso      1.000     O          -0.695231           
         O5        1.0000    0.22570   0.58229   0.44158   Biso      1.000     O          -0.678991           
         O6        1.0000    0.83650   0.11875   0.10230   Biso      1.000     O          -0.643746           
         O7        1.0000    0.65980   0.28830   0.07000   Biso      1.000     O          -0.647199           
         O8        1.0000    0.85030   0.51710   0.53900   Biso      1.000     O          -0.261941           
         O9        1.0000    0.65650   0.27602   0.33064   Biso      1.000     O          -0.629075           
         O10       1.0000    0.60020   0.17018   0.45916   Biso      1.000     O          -0.64588  
         O11       1.0000    0.78460   0.61981   0.35122   Biso      1.000     O          -0.69591  
         O12       1.0000    0.72570   0.85929   0.44158   Biso      1.000     O          -0.679356           
         O13       1.0000    0.33650   0.98355   0.10230   Biso      1.000     O          -0.643701           
         O14       1.0000    0.15980   0.78170   0.07000   Biso      1.000     O          -0.648026 