
##########################################################################
#               Crystallographic Information Format file
#               Produced by PyCifRW module
#
#  This is a CIF file.  CIF has been adopted by the International
#  Union of Crystallography as the standard for data archiving and
#  transmission.
#
#  For information on this file format, follow the CIF links at
#  http://www.iucr.org
##########################################################################

data_image0

_cell_length_a                          11.5733
_cell_length_b                          14.6066
_cell_length_c                          14.6066
_cell_angle_alpha                       66.7111
_cell_angle_beta                        74.6858
_cell_angle_gamma                       105.314
_symmetry_space_group_name_H-M          'P 1'
_symmetry_int_tables_number             1
loop_
  _symmetry_equiv_pos_as_xyz
         'x, y, z' 
loop_
  _atom_site_label
  _atom_site_occupancy
  _atom_site_fract_x
  _atom_site_fract_y
  _atom_site_fract_z
  _atom_site_thermal_displace_type
  _atom_site_B_iso_or_equiv
  _atom_site_type_symbol
  _atom_site_charge
         C1        1.0000    0.24030   0.26410   0.49780   Biso      1.000     C          0.398118  
         C2        1.0000    0.29410   0.77500   0.59460   Biso      1.000     C          -0.547999           
         C3        1.0000    0.09840   0.24410   0.53630   Biso      1.000     C          -0.545539           
         C4        1.0000    0.85430   0.75590   0.78040   Biso      1.000     C          -0.543538           
         C5        1.0000    0.42000   0.25470   0.42660   Biso      1.000     C          0.407468  
         C6        1.0000    0.51910   0.22500   0.36960   Biso      1.000     C          -0.546838           
         C7        1.0000    0.85430   0.21960   0.24410   Biso      1.000     C          -0.54335  
         C8        1.0000    0.97620   0.23810   0.26410   Biso      1.000     C          0.399172  
         C9        1.0000    0.16530   0.31870   0.25470   Biso      1.000     C          0.407857  
         C10       1.0000    0.29410   0.40540   0.22500   Biso      1.000     C          -0.547955           
         C11       1.0000    0.63470   0.53630   0.21960   Biso      1.000     C          -0.543118           
         C12       1.0000    0.73810   0.49780   0.23810   Biso      1.000     C          0.399375  
         C13       1.0000    0.84660   0.42660   0.31870   Biso      1.000     C          0.410718  
         C14       1.0000    0.88870   0.36960   0.40540   Biso      1.000     C          -0.549665           
         C15       1.0000    0.51910   0.63040   0.77500   Biso      1.000     C          -0.546905           
         C16       1.0000    0.42000   0.57340   0.74530   Biso      1.000     C          0.407377  
         C17       1.0000    0.24030   0.50220   0.73590   Biso      1.000     C          0.398043  
         C18       1.0000    0.09840   0.46370   0.75590   Biso      1.000     C          -0.545418           
         C19       1.0000    0.88870   0.59460   0.63040   Biso      1.000     C          -0.549707           
         C20       1.0000    0.84660   0.68130   0.57340   Biso      1.000     C          0.410276  
         C21       1.0000    0.73810   0.76190   0.50220   Biso      1.000     C          0.398942  
         C22       1.0000    0.63470   0.78040   0.46370   Biso      1.000     C          -0.542882           
         C23       1.0000    0.16530   0.74530   0.68130   Biso      1.000     C          0.409133  
         C24       1.0000    0.97620   0.73590   0.76190   Biso      1.000     C          0.399542  
         Cu1       1.0000    0.08442   0.88186   0.51668   Biso      1.000     Cu          0.691212  
         Cu2       1.0000    0.91586   0.59531   0.00000   Biso      1.000     Cu          0.284525  
         Cu3       1.0000    0.32055   0.40469   0.59531   Biso      1.000     Cu          0.284237  
         Cu4       1.0000    0.91586   0.00000   0.40469   Biso      1.000     Cu          0.274098  
         Cu5       1.0000    0.08442   0.48332   0.11814   Biso      1.000     Cu          0.682715  
         Cu6       1.0000    0.20256   0.11814   0.39854   Biso      1.000     Cu          0.685868  
         Cu7       1.0000    0.60110   0.39854   0.48332   Biso      1.000     Cu          0.682871  
         Cu8       1.0000    0.20256   0.60146   0.88186   Biso      1.000     Cu          0.681911  
         Cu9       1.0000    0.60110   0.51668   0.60146   Biso      1.000     Cu          0.6805    
         H1        1.0000    0.46280   0.32990   0.67010   Biso      1.000     H          0.403609  
         H2        1.0000    0.13290   0.00000   0.32990   Biso      1.000     H          0.401817  
         H3        1.0000    0.88980   0.40400   0.45090   Biso      1.000     H          0.196389  
         H4        1.0000    0.97710   0.37510   0.37070   Biso      1.000     H          0.162458  
         H5        1.0000    0.82650   0.29210   0.45150   Biso      1.000     H          0.171542  
         H6        1.0000    0.62380   0.58020   0.25480   Biso      1.000     H          0.178169  
         H7        1.0000    0.55110   0.47280   0.25120   Biso      1.000     H          0.174789  
         H8        1.0000    0.13290   0.67010   0.00000   Biso      1.000     H          0.404291  
         H9        1.0000    0.34070   0.45090   0.14510   Biso      1.000     H          0.196511  
         H10       1.0000    0.66150   0.85940   0.41880   Biso      1.000     H          0.158027  
         H11       1.0000    0.55110   0.74880   0.52720   Biso      1.000     H          0.174684  
         H12       1.0000    0.62380   0.74520   0.41980   Biso      1.000     H          0.177874  
         H13       1.0000    0.66150   0.58120   0.14060   Biso      1.000     H          0.158063  
         H14       1.0000    0.97710   0.62930   0.62490   Biso      1.000     H          0.162268  
         H15       1.0000    0.88980   0.54910   0.59600   Biso      1.000     H          0.196437  
         H16       1.0000    0.08030   0.41880   0.72180   Biso      1.000     H          0.158841  
         H17       1.0000    0.07830   0.52720   0.72400   Biso      1.000     H          0.175385  
         H18       1.0000    0.04360   0.41980   0.83500   Biso      1.000     H          0.178502  
         H19       1.0000    0.53440   0.70790   0.74360   Biso      1.000     H          0.171253  
         H20       1.0000    0.60200   0.62490   0.74580   Biso      1.000     H          0.160523  
         H21       1.0000    0.48580   0.59600   0.85490   Biso      1.000     H          0.195589  
         H22       1.0000    0.80210   0.72180   0.85940   Biso      1.000     H          0.158107  
         H23       1.0000    0.80230   0.72400   0.74880   Biso      1.000     H          0.174931  
         H24       1.0000    0.87860   0.83500   0.74520   Biso      1.000     H          0.178068  
         H25       1.0000    0.82650   0.54850   0.70790   Biso      1.000     H          0.171297  
         H26       1.0000    0.34780   0.74580   0.62930   Biso      1.000     H          0.16094   
         H27       1.0000    0.27800   0.74360   0.54850   Biso      1.000     H          0.171326  
         H28       1.0000    0.34780   0.37070   0.25420   Biso      1.000     H          0.160806  
         H29       1.0000    0.27800   0.45150   0.25640   Biso      1.000     H          0.171312  
         H30       1.0000    0.80230   0.25120   0.27600   Biso      1.000     H          0.174692  
         H31       1.0000    0.80210   0.14060   0.27820   Biso      1.000     H          0.15804   
         H32       1.0000    0.48580   0.14510   0.40400   Biso      1.000     H          0.195849  
         H33       1.0000    0.87860   0.25480   0.16500   Biso      1.000     H          0.177557  
         H34       1.0000    0.53440   0.25640   0.29210   Biso      1.000     H          0.171021  
         H35       1.0000    0.04360   0.16500   0.58020   Biso      1.000     H          0.178739  
         H36       1.0000    0.07830   0.27600   0.47280   Biso      1.000     H          0.175483  
         H37       1.0000    0.08030   0.27820   0.58120   Biso      1.000     H          0.158865  
         H38       1.0000    0.34070   0.85490   0.54910   Biso      1.000     H          0.196574  
         H39       1.0000    0.60200   0.25420   0.37510   Biso      1.000     H          0.160428  
         N1        1.0000    0.73320   0.44180   0.33960   Biso      1.000     N          -0.442549           
         N2        1.0000    0.44590   0.31890   0.46920   Biso      1.000     N          -0.288963           
         N3        1.0000    0.91510   0.46920   0.21190   Biso      1.000     N          -0.291458           
         N4        1.0000    0.84390   0.51560   0.16260   Biso      1.000     N          -0.237151           
         N5        1.0000    0.07280   0.33960   0.21860   Biso      1.000     N          -0.441352           
         N6        1.0000    0.12700   0.21190   0.31890   Biso      1.000     N          -0.289121           
         N7        1.0000    0.00650   0.16260   0.32180   Biso      1.000     N          -0.235547           
         N8        1.0000    0.29140   0.21860   0.44180   Biso      1.000     N          -0.435863           
         N9        1.0000    0.32830   0.32180   0.51560   Biso      1.000     N          -0.237672           
         N10       1.0000    0.44590   0.53080   0.68110   Biso      1.000     N          -0.289058           
         N11       1.0000    0.12700   0.68110   0.78810   Biso      1.000     N          -0.290675           
         N12       1.0000    0.00650   0.67820   0.83740   Biso      1.000     N          -0.236902           
         N13       1.0000    0.29140   0.55820   0.78140   Biso      1.000     N          -0.43935  
         N14       1.0000    0.32830   0.48440   0.67820   Biso      1.000     N          -0.237614           
         N15       1.0000    0.73320   0.66040   0.55820   Biso      1.000     N          -0.442332           
         N16       1.0000    0.91510   0.78810   0.53080   Biso      1.000     N          -0.291652           
         N17       1.0000    0.84390   0.83740   0.48440   Biso      1.000     N          -0.23509  
         N18       1.0000    0.07280   0.78140   0.66040   Biso      1.000     N          -0.439353           
         O1        1.0000    0.08925   0.61355   0.00000   Biso      1.000     O          -0.785087           
         O2        1.0000    0.08925   0.00000   0.38645   Biso      1.000     O          -0.788132           
         O3        1.0000    0.24110   0.00000   0.48260   Biso      1.000     O          -0.858215           
         O4        1.0000    0.47570   0.38645   0.61355   Biso      1.000     O          -0.782595           
         O5        1.0000    0.72370   0.48260   0.51740   Biso      1.000     O          -0.838642           
         O6        1.0000    0.24110   0.51740   0.00000   Biso      1.000     O          -0.837732 