
##########################################################################
#               Crystallographic Information Format file
#               Produced by PyCifRW module
#
#  This is a CIF file.  CIF has been adopted by the International
#  Union of Crystallography as the standard for data archiving and
#  transmission.
#
#  For information on this file format, follow the CIF links at
#  http://www.iucr.org
##########################################################################

data_image0

_cell_length_a                          10.4385
_cell_length_b                          27.184
_cell_length_c                          9.3482
_cell_angle_alpha                       90
_cell_angle_beta                        90
_cell_angle_gamma                       90
_symmetry_space_group_name_H-M          'P 1'
_symmetry_int_tables_number             1
loop_
  _symmetry_equiv_pos_as_xyz
         'x, y, z' 
loop_
  _atom_site_label
  _atom_site_occupancy
  _atom_site_fract_x
  _atom_site_fract_y
  _atom_site_fract_z
  _atom_site_thermal_displace_type
  _atom_site_B_iso_or_equiv
  _atom_site_type_symbol
  _atom_site_charge
         C1        1.0000    0.50030   0.07810   0.07560   Biso      1.000     C          0.688221  
         C2        1.0000    0.07190   0.16340   0.84400   Biso      1.000     C          -0.165256           
         C3        1.0000    0.97200   0.13030   0.87580   Biso      1.000     C          -0.056084           
         C4        1.0000    0.00030   0.07810   0.92440   Biso      1.000     C          0.688221  
         C5        1.0000    0.28600   0.73530   0.88200   Biso      1.000     C          -0.524522           
         C6        1.0000    0.45850   0.79070   0.79200   Biso      1.000     C          0.023268  
         C7        1.0000    0.57920   0.77540   0.77680   Biso      1.000     C          0.025939999999999998          
         C8        1.0000    0.68100   0.80720   0.80800   Biso      1.000     C          -0.14420999999999998          
         C9        1.0000    0.65300   0.85440   0.85870   Biso      1.000     C          -0.129666           
         C10       1.0000    0.84700   0.14560   0.85870   Biso      1.000     C          -0.129666           
         C11       1.0000    0.36100   0.75000   0.75000   Biso      1.000     C          0.191601  
         C12       1.0000    0.52800   0.86970   0.87580   Biso      1.000     C          -0.056083           
         C13       1.0000    0.49970   0.92190   0.92440   Biso      1.000     C          0.688221  
         C14       1.0000    0.71400   0.23530   0.38200   Biso      1.000     C          -0.524522           
         C15       1.0000    0.54150   0.29070   0.29200   Biso      1.000     C          0.023268  
         C16       1.0000    0.42080   0.27540   0.27680   Biso      1.000     C          0.025939999999999998          
         C17       1.0000    0.31900   0.30720   0.30800   Biso      1.000     C          -0.144209           
         C18       1.0000    0.34700   0.35440   0.35870   Biso      1.000     C          -0.129666           
         C19       1.0000    0.57190   0.33660   0.34400   Biso      1.000     C          -0.165252           
         C20       1.0000    0.42810   0.83660   0.84400   Biso      1.000     C          -0.165251           
         C21       1.0000    0.81900   0.19280   0.80800   Biso      1.000     C          -0.144207           
         C22       1.0000    0.92080   0.22460   0.77680   Biso      1.000     C          0.02592   
         C23       1.0000    0.04150   0.20930   0.79200   Biso      1.000     C          0.02329   
         C24       1.0000    0.86100   0.75000   0.25000   Biso      1.000     C          0.191599  
         C25       1.0000    0.63900   0.25000   0.25000   Biso      1.000     C          0.191601  
         C26       1.0000    0.28600   0.76470   0.61800   Biso      1.000     C          -0.524522           
         C27       1.0000    0.45850   0.70930   0.70800   Biso      1.000     C          0.023268  
         C28       1.0000    0.57920   0.72460   0.72320   Biso      1.000     C          0.025941000000000002          
         C29       1.0000    0.68100   0.69280   0.69200   Biso      1.000     C          -0.14420999999999998          
         C30       1.0000    0.65300   0.64560   0.64130   Biso      1.000     C          -0.129666           
         C31       1.0000    0.42810   0.66340   0.65600   Biso      1.000     C          -0.165251           
         C32       1.0000    0.52800   0.63030   0.62420   Biso      1.000     C          -0.056083           
         C33       1.0000    0.49970   0.57810   0.57560   Biso      1.000     C          0.688221  
         C34       1.0000    0.21400   0.23530   0.61800   Biso      1.000     C          -0.524522           
         C35       1.0000    0.04150   0.29070   0.70800   Biso      1.000     C          0.023268  
         C36       1.0000    0.92080   0.27540   0.72320   Biso      1.000     C          0.025942000000000003          
         C37       1.0000    0.81900   0.30720   0.69200   Biso      1.000     C          -0.14420999999999998          
         C38       1.0000    0.84700   0.35440   0.64130   Biso      1.000     C          -0.129666           
         C39       1.0000    0.07190   0.33660   0.65600   Biso      1.000     C          -0.165252           
         C40       1.0000    0.97200   0.36970   0.62420   Biso      1.000     C          -0.056083           
         C41       1.0000    0.00030   0.42190   0.57560   Biso      1.000     C          0.688221  
         C42       1.0000    0.21400   0.26470   0.88200   Biso      1.000     C          -0.524522           
         C43       1.0000    0.47200   0.36970   0.37580   Biso      1.000     C          -0.056083           
         C44       1.0000    0.50030   0.42190   0.42440   Biso      1.000     C          0.688221  
         C45       1.0000    0.13900   0.25000   0.75000   Biso      1.000     C          0.191599  
         C46       1.0000    0.34700   0.14560   0.14130   Biso      1.000     C          -0.129666           
         C47       1.0000    0.54150   0.20930   0.20800   Biso      1.000     C          0.023268  
         C48       1.0000    0.92810   0.83660   0.15600   Biso      1.000     C          -0.165253           
         C49       1.0000    0.99970   0.57810   0.42440   Biso      1.000     C          0.688221  
         C50       1.0000    0.02800   0.63030   0.37580   Biso      1.000     C          -0.056084           
         C51       1.0000    0.92810   0.66340   0.34400   Biso      1.000     C          -0.165256           
         C52       1.0000    0.31900   0.19280   0.19200   Biso      1.000     C          -0.144209           
         C53       1.0000    0.71400   0.26470   0.11800   Biso      1.000     C          -0.524522           
         C54       1.0000    0.95850   0.79070   0.20800   Biso      1.000     C          0.02327   
         C55       1.0000    0.78600   0.73530   0.11800   Biso      1.000     C          -0.524522           
         C56       1.0000    0.18100   0.80720   0.19200   Biso      1.000     C          -0.14420999999999998          
         C57       1.0000    0.99970   0.92190   0.07560   Biso      1.000     C          0.688221  
         C58       1.0000    0.07920   0.77540   0.22320   Biso      1.000     C          0.025942000000000003          
         C59       1.0000    0.15300   0.64560   0.35870   Biso      1.000     C          -0.129666           
         C60       1.0000    0.18100   0.69280   0.30800   Biso      1.000     C          -0.144207           
         C61       1.0000    0.15300   0.85440   0.14130   Biso      1.000     C          -0.129666           
         C62       1.0000    0.07920   0.72460   0.27680   Biso      1.000     C          0.02592   
         C63       1.0000    0.95850   0.70930   0.29200   Biso      1.000     C          0.02329   
         C64       1.0000    0.78600   0.76470   0.38200   Biso      1.000     C          -0.524522           
         C65       1.0000    0.57190   0.16340   0.15600   Biso      1.000     C          -0.165251           
         C66       1.0000    0.47200   0.13030   0.12420   Biso      1.000     C          -0.056083           
         C67       1.0000    0.02800   0.86970   0.12420   Biso      1.000     C          -0.056083           
         C68       1.0000    0.42080   0.22460   0.22320   Biso      1.000     C          0.025941000000000002          
         Eu1       1.0000    0.75000   0.00000   0.02597   Biso      1.000     Eu          1.476723  
         Eu2       1.0000    0.75000   0.50000   0.47403   Biso      1.000     Eu          1.476723  
         Eu3       1.0000    0.25000   0.00000   0.97403   Biso      1.000     Eu          1.4767219999999999  
         Eu4       1.0000    0.25000   0.50000   0.52597   Biso      1.000     Eu          1.4767219999999999  
         H1        1.0000    0.84180   0.77990   0.45090   Biso      1.000     H          0.159827  
         H2        1.0000    0.78040   0.37580   0.61880   Biso      1.000     H          0.11108   
         H3        1.0000    0.15690   0.34570   0.64280   Biso      1.000     H          0.12205   
         H4        1.0000    0.65820   0.27990   0.04910   Biso      1.000     H          0.159827  
         H5        1.0000    0.73460   0.29720   0.70470   Biso      1.000     H          0.11613   
         H6        1.0000    0.78000   0.28750   0.14460   Biso      1.000     H          0.16029300000000002           
         H7        1.0000    0.71960   0.62420   0.61880   Biso      1.000     H          0.11108   
         H8        1.0000    0.25250   0.26410   0.57610   Biso      1.000     H          0.15528599999999998           
         H9        1.0000    0.28000   0.21250   0.64460   Biso      1.000     H          0.16029200000000002           
         H10       1.0000    0.15820   0.22010   0.54910   Biso      1.000     H          0.159827  
         H11       1.0000    0.34310   0.65430   0.64280   Biso      1.000     H          0.12205   
         H12       1.0000    0.23460   0.20280   0.20470   Biso      1.000     H          0.11613   
         H13       1.0000    0.76540   0.70280   0.70470   Biso      1.000     H          0.11613   
         H14       1.0000    0.28040   0.12420   0.11880   Biso      1.000     H          0.11108   
         H15       1.0000    0.65690   0.15430   0.14280   Biso      1.000     H          0.12205   
         H16       1.0000    0.24750   0.73590   0.57610   Biso      1.000     H          0.15528599999999998           
         H17       1.0000    0.22000   0.78750   0.64460   Biso      1.000     H          0.16029200000000002           
         H18       1.0000    0.34180   0.77990   0.54910   Biso      1.000     H          0.159827  
         H19       1.0000    0.75250   0.23590   0.07610   Biso      1.000     H          0.15528599999999998           
         H20       1.0000    0.15820   0.27990   0.95090   Biso      1.000     H          0.159827  
         H21       1.0000    0.84310   0.84570   0.14280   Biso      1.000     H          0.12205   
         H22       1.0000    0.25250   0.23590   0.92390   Biso      1.000     H          0.15528599999999998           
         H23       1.0000    0.74750   0.73590   0.42390   Biso      1.000     H          0.15528599999999998           
         H24       1.0000    0.65690   0.34570   0.35720   Biso      1.000     H          0.12205   
         H25       1.0000    0.28040   0.37580   0.38120   Biso      1.000     H          0.11108   
         H26       1.0000    0.26540   0.70280   0.29530   Biso      1.000     H          0.11613   
         H27       1.0000    0.23460   0.29720   0.29530   Biso      1.000     H          0.11613   
         H28       1.0000    0.21960   0.62420   0.38120   Biso      1.000     H          0.11108   
         H29       1.0000    0.75250   0.26410   0.42390   Biso      1.000     H          0.15528599999999998           
         H30       1.0000    0.78000   0.21250   0.35540   Biso      1.000     H          0.16029200000000002           
         H31       1.0000    0.65820   0.22010   0.45090   Biso      1.000     H          0.159827  
         H32       1.0000    0.84310   0.65430   0.35720   Biso      1.000     H          0.12205   
         H33       1.0000    0.71960   0.87580   0.88120   Biso      1.000     H          0.11108   
         H34       1.0000    0.28000   0.28750   0.85540   Biso      1.000     H          0.16029200000000002           
         H35       1.0000    0.84180   0.72010   0.04910   Biso      1.000     H          0.159827  
         H36       1.0000    0.72000   0.71250   0.14460   Biso      1.000     H          0.16029300000000002           
         H37       1.0000    0.74750   0.76410   0.07610   Biso      1.000     H          0.15528599999999998           
         H38       1.0000    0.76540   0.79720   0.79530   Biso      1.000     H          0.11613   
         H39       1.0000    0.26540   0.79720   0.20470   Biso      1.000     H          0.11613   
         H40       1.0000    0.72000   0.78750   0.35540   Biso      1.000     H          0.16029200000000002           
         H41       1.0000    0.21960   0.87580   0.11880   Biso      1.000     H          0.11108   
         H42       1.0000    0.73460   0.20280   0.79530   Biso      1.000     H          0.11613   
         H43       1.0000    0.78040   0.12420   0.88120   Biso      1.000     H          0.11108   
         H44       1.0000    0.24750   0.76410   0.92390   Biso      1.000     H          0.15528599999999998           
         H45       1.0000    0.15690   0.15430   0.85720   Biso      1.000     H          0.12205   
         H46       1.0000    0.34310   0.84570   0.85720   Biso      1.000     H          0.12205   
         H47       1.0000    0.22000   0.71250   0.85540   Biso      1.000     H          0.16029200000000002           
         H48       1.0000    0.34180   0.72010   0.95090   Biso      1.000     H          0.159827  
         O1        1.0000    0.58750   0.94820   0.95480   Biso      1.000     O          -0.686375           
         O2        1.0000    0.88680   0.56690   0.43360   Biso      1.000     O          -0.690149           
         O3        1.0000    0.08750   0.55180   0.45480   Biso      1.000     O          -0.686375           
         O4        1.0000    0.11320   0.06690   0.93360   Biso      1.000     O          -0.690149           
         O5        1.0000    0.91250   0.05180   0.95480   Biso      1.000     O          -0.686375           
         O6        1.0000    0.91250   0.44820   0.54520   Biso      1.000     O          -0.686375           
         O7        1.0000    0.58750   0.55180   0.54520   Biso      1.000     O          -0.686375           
         O8        1.0000    0.38680   0.56690   0.56640   Biso      1.000     O          -0.690149           
         O9        1.0000    0.38680   0.93310   0.93360   Biso      1.000     O          -0.690149           
         O10       1.0000    0.41250   0.05180   0.04520   Biso      1.000     O          -0.686375           
         O11       1.0000    0.88680   0.93310   0.06640   Biso      1.000     O          -0.690149           
         O12       1.0000    0.61320   0.06690   0.06640   Biso      1.000     O          -0.690149           
         O13       1.0000    0.61320   0.43310   0.43360   Biso      1.000     O          -0.690149           
         O14       1.0000    0.41250   0.44820   0.45480   Biso      1.000     O          -0.686375           
         O15       1.0000    0.08750   0.94820   0.04520   Biso      1.000     O          -0.686375           
         O16       1.0000    0.11320   0.43310   0.56640   Biso      1.000     O          -0.690149 