
##########################################################################
#               Crystallographic Information Format file
#               Produced by PyCifRW module
#
#  This is a CIF file.  CIF has been adopted by the International
#  Union of Crystallography as the standard for data archiving and
#  transmission.
#
#  For information on this file format, follow the CIF links at
#  http://www.iucr.org
##########################################################################

data_image0

_cell_length_a                          9.7669
_cell_length_b                          17.3605
_cell_length_c                          18.226
_cell_angle_alpha                       93.5331
_cell_angle_beta                        90
_cell_angle_gamma                       106.338
_symmetry_space_group_name_H-M          'P 1'
_symmetry_int_tables_number             1
loop_
  _symmetry_equiv_pos_as_xyz
         'x, y, z' 
loop_
  _atom_site_label
  _atom_site_occupancy
  _atom_site_fract_x
  _atom_site_fract_y
  _atom_site_fract_z
  _atom_site_thermal_displace_type
  _atom_site_B_iso_or_equiv
  _atom_site_type_symbol
  _atom_site_charge
         C1        1.0000    0.71617   0.39934   0.96190   Biso      1.000     C          0.566425  
         C2        1.0000    0.10563   0.38086   0.29930   Biso      1.000     C          -0.015033           
         C3        1.0000    0.15447   0.44994   0.26020   Biso      1.000     C          -0.102812           
         C4        1.0000    0.23506   0.37392   0.16390   Biso      1.000     C          -0.016809           
         C5        1.0000    0.58875   0.45210   0.48160   Biso      1.000     C          0.0011    
         C6        1.0000    0.47721   0.45282   0.43510   Biso      1.000     C          -0.097498           
         C7        1.0000    0.65340   0.16900   0.50960   Biso      1.000     C          0.560705  
         C8        1.0000    0.58742   0.05244   0.05150   Biso      1.000     C          -0.115894           
         C9        1.0000    0.42322   0.02984   0.95180   Biso      1.000     C          -0.097502           
         C10       1.0000    0.51018   0.08236   0.00440   Biso      1.000     C          -0.020822           
         C11       1.0000    0.18750   0.30980   0.76920   Biso      1.000     C          -0.093354           
         C12       1.0000    0.22912   0.44644   0.69370   Biso      1.000     C          -0.097685           
         C13       1.0000    0.34972   0.38524   0.87210   Biso      1.000     C          0.600893  
         C14       1.0000    0.11901   0.30642   0.70220   Biso      1.000     C          -0.093841           
         C15       1.0000    0.88926   0.50072   0.04710   Biso      1.000     C          -0.082104           
         C16       1.0000    0.06359   0.37158   0.59210   Biso      1.000     C          0.612905  
         C17       1.0000    0.27523   0.38086   0.79930   Biso      1.000     C          -0.013274           
         C18       1.0000    0.29547   0.44994   0.76020   Biso      1.000     C          -0.103966           
         C19       1.0000    0.13886   0.37392   0.66390   Biso      1.000     C          -0.016556           
         C20       1.0000    0.97561   0.45282   0.93510   Biso      1.000     C          -0.099516           
         C21       1.0000    0.51560   0.16900   0.00960   Biso      1.000     C          0.563746  
         C22       1.0000    0.53498   0.94756   0.44850   Biso      1.000     C          -0.115345           
         C23       1.0000    0.30799   0.37158   0.09210   Biso      1.000     C          0.610469  
         C24       1.0000    0.61146   0.50072   0.54710   Biso      1.000     C          -0.081916           
         C25       1.0000    0.18741   0.30642   0.20220   Biso      1.000     C          -0.092836           
         C26       1.0000    0.03552   0.38524   0.37210   Biso      1.000     C          0.602348  
         C27       1.0000    0.41258   0.94756   0.94850   Biso      1.000     C          -0.115894           
         C28       1.0000    0.57678   0.97016   0.04820   Biso      1.000     C          -0.097502           
         C29       1.0000    0.48982   0.91764   0.99560   Biso      1.000     C          -0.020822           
         C30       1.0000    0.28383   0.60066   0.03810   Biso      1.000     C          0.566424  
         C31       1.0000    0.81250   0.69020   0.23080   Biso      1.000     C          -0.093354           
         C32       1.0000    0.77088   0.55356   0.30630   Biso      1.000     C          -0.097686           
         C33       1.0000    0.65028   0.61476   0.12790   Biso      1.000     C          0.600893  
         C34       1.0000    0.88099   0.69358   0.29780   Biso      1.000     C          -0.093841           
         C35       1.0000    0.11074   0.49928   0.95290   Biso      1.000     C          -0.082096           
         C36       1.0000    0.93641   0.62842   0.40790   Biso      1.000     C          0.612904  
         C37       1.0000    0.39338   0.97016   0.54820   Biso      1.000     C          -0.101649           
         C38       1.0000    0.72477   0.61914   0.20070   Biso      1.000     C          -0.013274           
         C39       1.0000    0.86114   0.62608   0.33610   Biso      1.000     C          -0.016556           
         C40       1.0000    0.13665   0.54790   0.01840   Biso      1.000     C          0.001619  
         C41       1.0000    0.02439   0.54718   0.06490   Biso      1.000     C          -0.099507           
         C42       1.0000    0.48440   0.83100   0.99040   Biso      1.000     C          0.563745  
         C43       1.0000    0.46502   0.05244   0.55150   Biso      1.000     C          -0.115345           
         C44       1.0000    0.60662   0.02984   0.45180   Biso      1.000     C          -0.101648           
         C45       1.0000    0.57218   0.08236   0.50440   Biso      1.000     C          -0.015653           
         C46       1.0000    0.68317   0.39934   0.46190   Biso      1.000     C          0.564947  
         C47       1.0000    0.12230   0.30980   0.26920   Biso      1.000     C          -0.093965           
         C48       1.0000    0.21732   0.44644   0.19370   Biso      1.000     C          -0.0976   
         C49       1.0000    0.70453   0.55006   0.23980   Biso      1.000     C          -0.103966           
         C50       1.0000    0.42782   0.91764   0.49560   Biso      1.000     C          -0.015653           
         C51       1.0000    0.86335   0.45210   0.98160   Biso      1.000     C          0.001622  
         C52       1.0000    0.87770   0.69020   0.73080   Biso      1.000     C          -0.093973           
         C53       1.0000    0.34660   0.83100   0.49040   Biso      1.000     C          0.560705  
         C54       1.0000    0.52279   0.54718   0.56490   Biso      1.000     C          -0.097491           
         C55       1.0000    0.41125   0.54790   0.51840   Biso      1.000     C          0.0011    
         C56       1.0000    0.84553   0.55006   0.73980   Biso      1.000     C          -0.102813           
         C57       1.0000    0.89437   0.61914   0.70070   Biso      1.000     C          -0.015028           
         C58       1.0000    0.76494   0.62608   0.83610   Biso      1.000     C          -0.016809           
         C59       1.0000    0.31683   0.60066   0.53810   Biso      1.000     C          0.564947  
         C60       1.0000    0.38854   0.49928   0.45290   Biso      1.000     C          -0.081908           
         C61       1.0000    0.81259   0.69358   0.79780   Biso      1.000     C          -0.092832           
         C62       1.0000    0.96448   0.61476   0.62790   Biso      1.000     C          0.602347  
         C63       1.0000    0.78268   0.55356   0.80630   Biso      1.000     C          -0.0976   
         C64       1.0000    0.69201   0.62842   0.90790   Biso      1.000     C          0.610469  
         H1        1.0000    0.35460   0.49860   0.77980   Biso      1.000     H          0.12497   
         H2        1.0000    0.17400   0.26320   0.79410   Biso      1.000     H          0.125628  
         H3        1.0000    0.24420   0.49260   0.66800   Biso      1.000     H          0.118137  
         H4        1.0000    0.05880   0.25780   0.68300   Biso      1.000     H          0.125522  
         H5        1.0000    0.81450   0.50140   0.07850   Biso      1.000     H          0.118347  
         H6        1.0000    0.95880   0.42120   0.89110   Biso      1.000     H          0.121861  
         H7        1.0000    0.31310   0.49860   0.42150   Biso      1.000     H          0.1178    
         H8        1.0000    0.32190   0.95040   0.58160   Biso      1.000     H          0.123875  
         H9        1.0000    0.91080   0.73680   0.70590   Biso      1.000     H          0.125795  
         H10       1.0000    0.75160   0.50740   0.83200   Biso      1.000     H          0.117929  
         H11       1.0000    0.80100   0.74220   0.81700   Biso      1.000     H          0.125622  
         H12       1.0000    0.64790   0.08700   0.08620   Biso      1.000     H          0.137109  
         H13       1.0000    0.85600   0.50140   0.72020   Biso      1.000     H          0.125755  
         H14       1.0000    0.53760   0.57880   0.60890   Biso      1.000     H          0.121201  
         H15       1.0000    0.56090   0.91300   0.41380   Biso      1.000     H          0.135825  
         H16       1.0000    0.46240   0.42120   0.39110   Biso      1.000     H          0.121202  
         H17       1.0000    0.37150   0.04960   0.91840   Biso      1.000     H          0.12252   
         H18       1.0000    0.68690   0.50140   0.57850   Biso      1.000     H          0.117801  
         H19       1.0000    0.14400   0.49860   0.27980   Biso      1.000     H          0.125755  
         H20       1.0000    0.35210   0.91300   0.91380   Biso      1.000     H          0.137109  
         H21       1.0000    0.62850   0.95040   0.08160   Biso      1.000     H          0.12252   
         H22       1.0000    0.75580   0.50740   0.33200   Biso      1.000     H          0.118137  
         H23       1.0000    0.94120   0.74220   0.31700   Biso      1.000     H          0.125522  
         H24       1.0000    0.18550   0.49860   0.92150   Biso      1.000     H          0.118347  
         H25       1.0000    0.82600   0.73680   0.20590   Biso      1.000     H          0.125628  
         H26       1.0000    0.04120   0.57880   0.10890   Biso      1.000     H          0.121861  
         H27       1.0000    0.43910   0.08700   0.58620   Biso      1.000     H          0.135825  
         H28       1.0000    0.67810   0.04960   0.41840   Biso      1.000     H          0.123875  
         H29       1.0000    0.08920   0.26320   0.29410   Biso      1.000     H          0.125795  
         H30       1.0000    0.24840   0.49260   0.16800   Biso      1.000     H          0.117929  
         H31       1.0000    0.19900   0.25780   0.18300   Biso      1.000     H          0.125622  
         H32       1.0000    0.64540   0.50140   0.22020   Biso      1.000     H          0.12497   
         O1        1.0000    0.34133   0.30826   0.07402   Biso      1.000     O          -0.512561           
         O2        1.0000    0.44556   0.19272   0.96300   Biso      1.000     O          -0.463028           
         O3        1.0000    0.58830   0.21460   0.05810   Biso      1.000     O          -0.383285           
         O4        1.0000    0.97811   0.31902   0.39955   Biso      1.000     O          -0.519459           
         O5        1.0000    0.03634   0.45308   0.39912   Biso      1.000     O          -0.529734           
         O6        1.0000    0.33239   0.43198   0.05517   Biso      1.000     O          -0.537135           
         O7        1.0000    0.65410   0.35040   0.40820   Biso      1.000     O          -0.432175           
         O8        1.0000    0.79033   0.40426   0.50564   Biso      1.000     O          -0.568722           
         O9        1.0000    0.58326   0.54692   0.10088   Biso      1.000     O          -0.529658           
         O10       1.0000    0.62630   0.21460   0.55810   Biso      1.000     O          -0.383591           
         O11       1.0000    0.38607   0.59574   0.99436   Biso      1.000     O          -0.56901  
         O12       1.0000    0.03307   0.69174   0.42598   Biso      1.000     O          -0.514938           
         O13       1.0000    0.30370   0.64960   0.09180   Biso      1.000     O          -0.433035           
         O14       1.0000    0.90041   0.56802   0.44483   Biso      1.000     O          -0.536474           
         O15       1.0000    0.61393   0.40426   0.00564   Biso      1.000     O          -0.56901  
         O16       1.0000    0.65909   0.68098   0.10045   Biso      1.000     O          -0.51816  
         O17       1.0000    0.74716   0.19272   0.46300   Biso      1.000     O          -0.461255           
         O18       1.0000    0.96693   0.30826   0.57402   Biso      1.000     O          -0.514937           
         O19       1.0000    0.41170   0.78540   0.94190   Biso      1.000     O          -0.383283           
         O20       1.0000    0.09959   0.43198   0.55517   Biso      1.000     O          -0.536474           
         O21       1.0000    0.55444   0.80728   0.03700   Biso      1.000     O          -0.463028           
         O22       1.0000    0.02189   0.68098   0.60045   Biso      1.000     O          -0.519459           
         O23       1.0000    0.69630   0.35040   0.90820   Biso      1.000     O          -0.433037           
         O24       1.0000    0.66761   0.56802   0.94483   Biso      1.000     O          -0.537134           
         O25       1.0000    0.34590   0.64960   0.59180   Biso      1.000     O          -0.432176           
         O26       1.0000    0.96366   0.54692   0.60088   Biso      1.000     O          -0.529734           
         O27       1.0000    0.20967   0.59574   0.49436   Biso      1.000     O          -0.568723           
         O28       1.0000    0.25284   0.80728   0.53700   Biso      1.000     O          -0.461255           
         O29       1.0000    0.37370   0.78540   0.44190   Biso      1.000     O          -0.383591           
         O30       1.0000    0.34091   0.31902   0.89955   Biso      1.000     O          -0.51816  
         O31       1.0000    0.41674   0.45308   0.89912   Biso      1.000     O          -0.529658           
         O32       1.0000    0.65867   0.69174   0.92598   Biso      1.000     O          -0.512562           
         Zn1       1.0000    0.50000   0.50000   0.00000   Biso      1.000     Zn          1.032783  
         Zn2       1.0000    0.00000   0.50000   0.50000   Biso      1.000     Zn          1.032069  
         Zn3       1.0000    0.54609   0.69440   0.01618   Biso      1.000     Zn          0.926166  
         Zn4       1.0000    0.85169   0.30560   0.48382   Biso      1.000     Zn          0.926188  
         Zn5       1.0000    0.45391   0.30560   0.98382   Biso      1.000     Zn          0.926166  
         Zn6       1.0000    0.14831   0.69440   0.51618   Biso      1.000     Zn          0.926188 