
##########################################################################
#               Crystallographic Information Format file
#               Produced by PyCifRW module
#
#  This is a CIF file.  CIF has been adopted by the International
#  Union of Crystallography as the standard for data archiving and
#  transmission.
#
#  For information on this file format, follow the CIF links at
#  http://www.iucr.org
##########################################################################

data_image0

_cell_length_a                          14.7917
_cell_length_b                          14.7917
_cell_length_c                          16.8171
_cell_angle_alpha                       102.257
_cell_angle_beta                        102.257
_cell_angle_gamma                       115.741
_symmetry_space_group_name_H-M          'P 1'
_symmetry_int_tables_number             1
loop_
  _symmetry_equiv_pos_as_xyz
         'x, y, z' 
loop_
  _atom_site_label
  _atom_site_occupancy
  _atom_site_fract_x
  _atom_site_fract_y
  _atom_site_fract_z
  _atom_site_thermal_displace_type
  _atom_site_B_iso_or_equiv
  _atom_site_type_symbol
  _atom_site_charge
         C1        1.0000    0.39019   0.86941   0.74540   Biso      1.000     C          0.606787  
         C2        1.0000    0.27212   0.25048   0.10860   Biso      1.000     C          -0.085899           
         C3        1.0000    0.21209   0.30131   0.09930   Biso      1.000     C          -0.199991           
         C4        1.0000    0.26376   0.41124   0.11470   Biso      1.000     C          0.20364   
         C5        1.0000    0.37489   0.46731   0.14010   Biso      1.000     C          -0.197831           
         C6        1.0000    0.43192   0.41628   0.14810   Biso      1.000     C          -0.078545           
         C7        1.0000    0.38185   0.30715   0.13190   Biso      1.000     C          -0.060522           
         C8        1.0000    0.44729   0.25391   0.13880   Biso      1.000     C          0.611196  
         C9        1.0000    0.73877   0.28363   0.60870   Biso      1.000     C          -0.081785           
         C10       1.0000    0.64454   0.23706   0.62550   Biso      1.000     C          -0.204106           
         C11       1.0000    0.55813   0.24507   0.58380   Biso      1.000     C          0.206177  
         C12       1.0000    0.56520   0.29420   0.52170   Biso      1.000     C          -0.192552           
         C13       1.0000    0.66058   0.34222   0.50670   Biso      1.000     C          -0.071996           
         C14       1.0000    0.74840   0.33940   0.55100   Biso      1.000     C          -0.062442           
         C15       1.0000    0.85170   0.39390   0.53650   Biso      1.000     C          0.638965  
         C16       1.0000    0.86941   0.39019   0.24540   Biso      1.000     C          0.606786  
         C17       1.0000    0.41853   0.05187   0.75480   Biso      1.000     C          -0.082194           
         C18       1.0000    0.43834   0.11746   0.63760   Biso      1.000     C          0.200524  
         C19       1.0000    0.42220   0.02040   0.58810   Biso      1.000     C          -0.194101           
         C20       1.0000    0.40405   0.93995   0.62260   Biso      1.000     C          -0.081857           
         C21       1.0000    0.40342   0.95478   0.70620   Biso      1.000     C          -0.036513           
         C22       1.0000    0.25048   0.27212   0.60860   Biso      1.000     C          -0.085899           
         C23       1.0000    0.30131   0.21209   0.59930   Biso      1.000     C          -0.199991           
         C24       1.0000    0.41124   0.26376   0.61470   Biso      1.000     C          0.203639  
         C25       1.0000    0.46731   0.37489   0.64010   Biso      1.000     C          -0.197831           
         C26       1.0000    0.41628   0.43192   0.64810   Biso      1.000     C          -0.078545           
         C27       1.0000    0.30715   0.38185   0.63190   Biso      1.000     C          -0.06052  
         C28       1.0000    0.25391   0.44729   0.63880   Biso      1.000     C          0.611185  
         C29       1.0000    0.76294   0.35546   0.87450   Biso      1.000     C          -0.204106           
         C30       1.0000    0.75493   0.44187   0.91620   Biso      1.000     C          0.206177  
         C31       1.0000    0.70580   0.43480   0.97830   Biso      1.000     C          -0.192552           
         C32       1.0000    0.43503   0.13197   0.72110   Biso      1.000     C          -0.192588           
         C33       1.0000    0.95478   0.40342   0.20620   Biso      1.000     C          -0.036517           
         C34       1.0000    0.93995   0.40405   0.12260   Biso      1.000     C          -0.081857           
         C35       1.0000    0.02040   0.42220   0.08810   Biso      1.000     C          -0.194099           
         C36       1.0000    0.26123   0.71637   0.39130   Biso      1.000     C          -0.081785           
         C37       1.0000    0.35546   0.76294   0.37450   Biso      1.000     C          -0.204106           
         C38       1.0000    0.44187   0.75493   0.41620   Biso      1.000     C          0.206177  
         C39       1.0000    0.43480   0.70580   0.47830   Biso      1.000     C          -0.192552           
         C40       1.0000    0.33942   0.65778   0.49330   Biso      1.000     C          -0.071996           
         C41       1.0000    0.25160   0.66060   0.44900   Biso      1.000     C          -0.062442           
         C42       1.0000    0.14830   0.60610   0.46350   Biso      1.000     C          0.638965  
         C43       1.0000    0.58147   0.94813   0.24520   Biso      1.000     C          -0.082194           
         C44       1.0000    0.56497   0.86803   0.27890   Biso      1.000     C          -0.192588           
         C45       1.0000    0.56166   0.88254   0.36240   Biso      1.000     C          0.200524  
         C46       1.0000    0.57780   0.97960   0.41190   Biso      1.000     C          -0.194102           
         C47       1.0000    0.59595   0.06005   0.37740   Biso      1.000     C          -0.081857           
         C48       1.0000    0.59658   0.04522   0.29380   Biso      1.000     C          -0.036513           
         C49       1.0000    0.60981   0.13059   0.25460   Biso      1.000     C          0.606787  
         C50       1.0000    0.74952   0.72788   0.39140   Biso      1.000     C          -0.085898           
         C51       1.0000    0.69869   0.78791   0.40070   Biso      1.000     C          -0.199991           
         C52       1.0000    0.58876   0.73624   0.38530   Biso      1.000     C          0.203639  
         C53       1.0000    0.11746   0.43834   0.13760   Biso      1.000     C          0.200527  
         C54       1.0000    0.13197   0.43503   0.22110   Biso      1.000     C          -0.192591           
         C55       1.0000    0.05187   0.41853   0.25480   Biso      1.000     C          -0.08219  
         C56       1.0000    0.39390   0.85170   0.03650   Biso      1.000     C          0.638966  
         C57       1.0000    0.33940   0.74840   0.05100   Biso      1.000     C          -0.062447           
         C58       1.0000    0.34222   0.66058   0.00670   Biso      1.000     C          -0.071992           
         C59       1.0000    0.65778   0.33942   0.99330   Biso      1.000     C          -0.071996           
         C60       1.0000    0.29420   0.56520   0.02170   Biso      1.000     C          -0.192554           
         C61       1.0000    0.23706   0.64454   0.12550   Biso      1.000     C          -0.204107           
         C62       1.0000    0.28363   0.73877   0.10870   Biso      1.000     C          -0.081784           
         C63       1.0000    0.74609   0.55271   0.36120   Biso      1.000     C          0.611185  
         C64       1.0000    0.69285   0.61815   0.36810   Biso      1.000     C          -0.060524           
         C65       1.0000    0.58372   0.56808   0.35190   Biso      1.000     C          -0.078542           
         C66       1.0000    0.53269   0.62511   0.35990   Biso      1.000     C          -0.19783  
         C67       1.0000    0.24507   0.55813   0.08380   Biso      1.000     C          0.206179  
         C68       1.0000    0.66060   0.25160   0.94900   Biso      1.000     C          -0.062442           
         C69       1.0000    0.71637   0.26123   0.89130   Biso      1.000     C          -0.081785           
         C70       1.0000    0.94813   0.58147   0.74520   Biso      1.000     C          -0.082194           
         C71       1.0000    0.60610   0.14830   0.96350   Biso      1.000     C          0.638965  
         C72       1.0000    0.55271   0.74609   0.86120   Biso      1.000     C          0.611196  
         C73       1.0000    0.61815   0.69285   0.86810   Biso      1.000     C          -0.060526           
         C74       1.0000    0.62511   0.53269   0.85990   Biso      1.000     C          -0.197831           
         C75       1.0000    0.73624   0.58876   0.88530   Biso      1.000     C          0.20364   
         C76       1.0000    0.78791   0.69869   0.90070   Biso      1.000     C          -0.199991           
         C77       1.0000    0.72788   0.74952   0.89140   Biso      1.000     C          -0.085898           
         C78       1.0000    0.56808   0.58372   0.85190   Biso      1.000     C          -0.078541           
         C79       1.0000    0.04522   0.59658   0.79380   Biso      1.000     C          -0.036516           
         C80       1.0000    0.06005   0.59595   0.87740   Biso      1.000     C          -0.081857           
         C81       1.0000    0.97960   0.57780   0.91190   Biso      1.000     C          -0.194099           
         C82       1.0000    0.88254   0.56166   0.86240   Biso      1.000     C          0.200526  
         C83       1.0000    0.13059   0.60981   0.75460   Biso      1.000     C          0.606786  
         C84       1.0000    0.86803   0.56497   0.77890   Biso      1.000     C          -0.192588           
         H1        1.0000    0.26220   0.13800   0.58290   Biso      1.000     H          0.128934  
         H2        1.0000    0.17750   0.23770   0.59890   Biso      1.000     H          0.11939   
         H3        1.0000    0.39190   0.87450   0.58880   Biso      1.000     H          0.109986  
         H4        1.0000    0.42360   0.00960   0.53200   Biso      1.000     H          0.12555   
         H5        1.0000    0.41750   0.06270   0.81110   Biso      1.000     H          0.115371  
         H6        1.0000    0.66530   0.37670   0.46630   Biso      1.000     H          0.124929  
         H7        1.0000    0.50580   0.29480   0.49020   Biso      1.000     H          0.131417  
         H8        1.0000    0.54070   0.41050   0.65170   Biso      1.000     H          0.121123  
         H9        1.0000    0.63910   0.20050   0.66460   Biso      1.000     H          0.12596   
         H10       1.0000    0.44400   0.19620   0.75420   Biso      1.000     H          0.128292  
         H11       1.0000    0.45540   0.50600   0.66490   Biso      1.000     H          0.116974  
         H12       1.0000    0.99040   0.57640   0.96800   Biso      1.000     H          0.12555   
         H13       1.0000    0.79950   0.36090   0.83540   Biso      1.000     H          0.12596   
         H14       1.0000    0.70520   0.49420   0.00980   Biso      1.000     H          0.131417  
         H15       1.0000    0.62330   0.33470   0.03370   Biso      1.000     H          0.124929  
         H16       1.0000    0.93730   0.58250   0.68890   Biso      1.000     H          0.11537   
         H17       1.0000    0.80380   0.55600   0.74580   Biso      1.000     H          0.128292  
         H18       1.0000    0.12550   0.60810   0.91120   Biso      1.000     H          0.109986  
         H19       1.0000    0.76230   0.82250   0.90110   Biso      1.000     H          0.11939   
         H20       1.0000    0.86200   0.73780   0.91710   Biso      1.000     H          0.128934  
         H21       1.0000    0.58950   0.45930   0.84830   Biso      1.000     H          0.121123  
         H22       1.0000    0.49400   0.54460   0.83510   Biso      1.000     H          0.116973  
         H23       1.0000    0.72240   0.20360   0.86380   Biso      1.000     H          0.121052  
         H24       1.0000    0.50600   0.45540   0.16490   Biso      1.000     H          0.116974  
         H25       1.0000    0.79640   0.27760   0.63620   Biso      1.000     H          0.121052  
         H26       1.0000    0.13800   0.26220   0.08290   Biso      1.000     H          0.128934  
         H27       1.0000    0.20360   0.72240   0.36380   Biso      1.000     H          0.121052  
         H28       1.0000    0.41050   0.54070   0.15170   Biso      1.000     H          0.121123  
         H29       1.0000    0.49420   0.70520   0.50980   Biso      1.000     H          0.131417  
         H30       1.0000    0.33470   0.62330   0.53370   Biso      1.000     H          0.124929  
         H31       1.0000    0.58250   0.93730   0.18890   Biso      1.000     H          0.115371  
         H32       1.0000    0.55600   0.80380   0.24580   Biso      1.000     H          0.128292  
         H33       1.0000    0.57640   0.99040   0.46800   Biso      1.000     H          0.12555   
         H34       1.0000    0.60810   0.12550   0.41120   Biso      1.000     H          0.109986  
         H35       1.0000    0.82250   0.76230   0.40110   Biso      1.000     H          0.11939   
         H36       1.0000    0.73780   0.86200   0.41710   Biso      1.000     H          0.128934  
         H37       1.0000    0.36090   0.79950   0.33540   Biso      1.000     H          0.12596   
         H38       1.0000    0.54460   0.49400   0.33510   Biso      1.000     H          0.116973  
         H39       1.0000    0.27760   0.79640   0.13620   Biso      1.000     H          0.121052  
         H40       1.0000    0.20050   0.63910   0.16460   Biso      1.000     H          0.12596   
         H41       1.0000    0.29480   0.50580   0.99020   Biso      1.000     H          0.131417  
         H42       1.0000    0.37670   0.66530   0.96630   Biso      1.000     H          0.124929  
         H43       1.0000    0.06270   0.41750   0.31110   Biso      1.000     H          0.11537   
         H44       1.0000    0.19620   0.44400   0.25420   Biso      1.000     H          0.128292  
         H45       1.0000    0.00960   0.42360   0.03200   Biso      1.000     H          0.12555   
         H46       1.0000    0.87450   0.39190   0.08880   Biso      1.000     H          0.109986  
         H47       1.0000    0.23770   0.17750   0.09890   Biso      1.000     H          0.11939   
         H48       1.0000    0.45930   0.58950   0.34830   Biso      1.000     H          0.121123  
         N1        1.0000    0.46254   0.20286   0.60360   Biso      1.000     N          -0.181782           
         N2        1.0000    0.79714   0.53746   0.89640   Biso      1.000     N          -0.181782           
         N3        1.0000    0.53746   0.79714   0.39640   Biso      1.000     N          -0.181781           
         N4        1.0000    0.20286   0.46254   0.10360   Biso      1.000     N          -0.181782           
         O1        1.0000    0.54710   0.31250   0.16260   Biso      1.000     O          -0.568461           
         O2        1.0000    0.77903   0.36157   0.19470   Biso      1.000     O          -0.532374           
         O3        1.0000    0.88974   0.40486   0.32470   Biso      1.000     O          -0.613047           
         O4        1.0000    0.92680   0.38320   0.57420   Biso      1.000     O          -0.546704           
         O5        1.0000    0.39944   0.15336   0.11810   Biso      1.000     O          -0.565216           
         O6        1.0000    0.85913   0.45187   0.49160   Biso      1.000     O          -0.588776           
         O7        1.0000    0.84664   0.60056   0.38190   Biso      1.000     O          -0.565213           
         O8        1.0000    0.63843   0.22097   0.30530   Biso      1.000     O          -0.532372           
         O9        1.0000    0.68750   0.45290   0.33740   Biso      1.000     O          -0.568456           
         O10       1.0000    0.38320   0.92680   0.07420   Biso      1.000     O          -0.546704           
         O11       1.0000    0.40486   0.88974   0.82470   Biso      1.000     O          -0.613049           
         O12       1.0000    0.45187   0.85913   0.99160   Biso      1.000     O          -0.588777           
         O13       1.0000    0.59514   0.11026   0.17530   Biso      1.000     O          -0.613049           
         O14       1.0000    0.36157   0.77903   0.69470   Biso      1.000     O          -0.532372           
         O15       1.0000    0.07320   0.61680   0.42580   Biso      1.000     O          -0.546704           
         O16       1.0000    0.31250   0.54710   0.66260   Biso      1.000     O          -0.568456           
         O17       1.0000    0.61680   0.07320   0.92580   Biso      1.000     O          -0.546704           
         O18       1.0000    0.54813   0.14087   0.00840   Biso      1.000     O          -0.588777           
         O19       1.0000    0.11026   0.59514   0.67530   Biso      1.000     O          -0.613047           
         O20       1.0000    0.22097   0.63843   0.80530   Biso      1.000     O          -0.532374           
         O21       1.0000    0.60056   0.84664   0.88190   Biso      1.000     O          -0.565216           
         O22       1.0000    0.45290   0.68750   0.83740   Biso      1.000     O          -0.568461           
         O23       1.0000    0.14087   0.54813   0.50840   Biso      1.000     O          -0.588776           
         O24       1.0000    0.15336   0.39944   0.61810   Biso      1.000     O          -0.565213           
         Zn1       1.0000    0.67092   0.32908   0.25000   Biso      1.000     Zn          0.966756  
         Zn2       1.0000    0.32908   0.67092   0.75000   Biso      1.000     Zn          0.966756  
         Zn3       1.0000    0.93096   0.54128   0.43109   Biso      1.000     Zn          0.999638  
         Zn4       1.0000    0.45872   0.06904   0.06891   Biso      1.000     Zn          0.999638  
         Zn5       1.0000    0.06904   0.45872   0.56891   Biso      1.000     Zn          0.999638  
         Zn6       1.0000    0.54128   0.93096   0.93109   Biso      1.000     Zn          0.999638 