
##########################################################################
#               Crystallographic Information Format file
#               Produced by PyCifRW module
#
#  This is a CIF file.  CIF has been adopted by the International
#  Union of Crystallography as the standard for data archiving and
#  transmission.
#
#  For information on this file format, follow the CIF links at
#  http://www.iucr.org
##########################################################################

data_image0

_cell_length_a                          10.363
_cell_length_b                          12.7428
_cell_length_c                          12.7428
_cell_angle_alpha                       107.822
_cell_angle_beta                        93.2049
_cell_angle_gamma                       86.7951
_symmetry_space_group_name_H-M          'P 1'
_symmetry_int_tables_number             1
loop_
  _symmetry_equiv_pos_as_xyz
         'x, y, z' 
loop_
  _atom_site_label
  _atom_site_occupancy
  _atom_site_fract_x
  _atom_site_fract_y
  _atom_site_fract_z
  _atom_site_thermal_displace_type
  _atom_site_B_iso_or_equiv
  _atom_site_type_symbol
  _atom_site_charge
         C1        1.0000    0.53240   0.79680   0.38800   Biso      1.000     C          0.599827  
         C2        1.0000    0.05370   0.68870   0.31590   Biso      1.000     C          -0.076271           
         C3        1.0000    0.03240   0.61200   0.20320   Biso      1.000     C          0.599829  
         C4        1.0000    0.03660   0.99340   0.94800   Biso      1.000     C          -0.23563699999999999          
         C5        1.0000    0.80820   0.07270   0.74130   Biso      1.000     C          0.107385  
         C6        1.0000    0.90160   0.08030   0.82450   Biso      1.000     C          -0.201727           
         C7        1.0000    0.94240   0.98720   0.85160   Biso      1.000     C          0.191105  
         C8        1.0000    0.89090   0.88950   0.79130   Biso      1.000     C          -0.210808           
         C9        1.0000    0.79830   0.88760   0.70900   Biso      1.000     C          0.094561  
         C10       1.0000    0.84300   0.37410   0.04990   Biso      1.000     C          0.6225390000000001  
         C11       1.0000    0.73460   0.31580   0.08220   Biso      1.000     C          -0.174922           
         C12       1.0000    0.46680   0.64010   0.22310   Biso      1.000     C          -0.083337           
         C13       1.0000    0.16320   0.67670   0.37990   Biso      1.000     C          -0.07687000000000001          
         C14       1.0000    0.48780   0.53580   0.15020   Biso      1.000     C          -0.218342           
         C15       1.0000    0.68710   0.51690   0.25030   Biso      1.000     C          -0.24086300000000002          
         C16       1.0000    0.66320   0.62010   0.32330   Biso      1.000     C          -0.07686699999999999          
         C17       1.0000    0.55370   0.68410   0.31130   Biso      1.000     C          -0.076263           
         C18       1.0000    0.46340   0.94800   0.99340   Biso      1.000     C          -0.235636           
         C19       1.0000    0.69180   0.74130   0.07270   Biso      1.000     C          0.107385  
         C20       1.0000    0.59840   0.82450   0.08030   Biso      1.000     C          -0.201727           
         C21       1.0000    0.55760   0.85160   0.98720   Biso      1.000     C          0.191105  
         C22       1.0000    0.60910   0.79130   0.88950   Biso      1.000     C          -0.210808           
         C23       1.0000    0.65700   0.04990   0.37410   Biso      1.000     C          0.62254   
         C24       1.0000    0.76540   0.08220   0.31580   Biso      1.000     C          -0.174924           
         C25       1.0000    0.03320   0.22310   0.64010   Biso      1.000     C          -0.083337           
         C26       1.0000    0.59890   0.47440   0.16280   Biso      1.000     C          0.276099  
         C27       1.0000    0.01220   0.15020   0.53580   Biso      1.000     C          -0.218342           
         C28       1.0000    0.18710   0.74970   0.48310   Biso      1.000     C          -0.24085700000000002          
         C29       1.0000    0.98780   0.84980   0.46420   Biso      1.000     C          -0.218346           
         C30       1.0000    0.96340   0.00660   0.05200   Biso      1.000     C          -0.235639           
         C31       1.0000    0.19180   0.92730   0.25870   Biso      1.000     C          0.107385  
         C32       1.0000    0.09840   0.91970   0.17550   Biso      1.000     C          -0.201727           
         C33       1.0000    0.05760   0.01280   0.14840   Biso      1.000     C          0.191105  
         C34       1.0000    0.10910   0.11050   0.20870   Biso      1.000     C          -0.210808           
         C35       1.0000    0.20170   0.11240   0.29100   Biso      1.000     C          0.09456200000000001           
         C36       1.0000    0.15700   0.62590   0.95010   Biso      1.000     C          0.6225390000000001  
         C37       1.0000    0.26540   0.68420   0.91780   Biso      1.000     C          -0.174923           
         C38       1.0000    0.53320   0.35990   0.77690   Biso      1.000     C          -0.08333600000000001          
         C39       1.0000    0.51220   0.46420   0.84980   Biso      1.000     C          -0.218342           
         C40       1.0000    0.40110   0.52560   0.83720   Biso      1.000     C          0.276098  
         C41       1.0000    0.09890   0.83720   0.52560   Biso      1.000     C          0.276099  
         C42       1.0000    0.31290   0.48310   0.74970   Biso      1.000     C          -0.24086300000000002          
         C43       1.0000    0.44630   0.31590   0.68870   Biso      1.000     C          -0.07626799999999999          
         C44       1.0000    0.46760   0.20320   0.61200   Biso      1.000     C          0.59983   
         C45       1.0000    0.53660   0.05200   0.00660   Biso      1.000     C          -0.23563800000000001          
         C46       1.0000    0.30820   0.25870   0.92730   Biso      1.000     C          0.107385  
         C47       1.0000    0.40160   0.17550   0.91970   Biso      1.000     C          -0.201727           
         C48       1.0000    0.44240   0.14840   0.01280   Biso      1.000     C          0.191105  
         C49       1.0000    0.39090   0.20870   0.11050   Biso      1.000     C          -0.210808           
         C50       1.0000    0.29830   0.29100   0.11240   Biso      1.000     C          0.09456200000000001           
         C51       1.0000    0.34300   0.95010   0.62590   Biso      1.000     C          0.62254   
         C52       1.0000    0.23460   0.91780   0.68420   Biso      1.000     C          -0.174923           
         C53       1.0000    0.96680   0.77690   0.35990   Biso      1.000     C          -0.083329           
         C54       1.0000    0.33680   0.37990   0.67670   Biso      1.000     C          -0.076863           
         C55       1.0000    0.90110   0.16280   0.47440   Biso      1.000     C          0.276097  
         C56       1.0000    0.70170   0.70900   0.88760   Biso      1.000     C          0.09456200000000001           
         C57       1.0000    0.83680   0.32330   0.62010   Biso      1.000     C          -0.076874           
         C58       1.0000    0.94630   0.31130   0.68410   Biso      1.000     C          -0.076264           
         C59       1.0000    0.96760   0.38800   0.79680   Biso      1.000     C          0.599829  
         C60       1.0000    0.81290   0.25030   0.51690   Biso      1.000     C          -0.240855           
         H1        1.0000    0.09150   0.92670   0.93210   Biso      1.000     H          0.116264  
         H2        1.0000    0.78160   0.13630   0.72350   Biso      1.000     H          0.09614600000000001           
         H3        1.0000    0.93660   0.14790   0.86190   Biso      1.000     H          0.137453  
         H4        1.0000    0.76510   0.82020   0.66840   Biso      1.000     H          0.101309  
         H5        1.0000    0.72780   0.24290   0.02930   Biso      1.000     H          0.12484   
         H6        1.0000    0.75690   0.30640   0.15380   Biso      1.000     H          0.10635499999999999           
         H7        1.0000    0.39320   0.68170   0.21310   Biso      1.000     H          0.11339300000000001           
         H8        1.0000    0.42770   0.50720   0.09300   Biso      1.000     H          0.135792  
         H9        1.0000    0.76170   0.47590   0.25930   Biso      1.000     H          0.129251  
         H10       1.0000    0.72180   0.64770   0.38210   Biso      1.000     H          0.11383299999999999           
         H11       1.0000    0.40850   0.93210   0.92670   Biso      1.000     H          0.116264  
         H12       1.0000    0.09130   0.05560   0.95940   Biso      1.000     H          0.120457  
         H13       1.0000    0.71840   0.72350   0.13630   Biso      1.000     H          0.09614600000000001           
         H14       1.0000    0.56340   0.86190   0.14790   Biso      1.000     H          0.137453  
         H15       1.0000    0.58160   0.80580   0.82440   Biso      1.000     H          0.13347699999999998           
         H16       1.0000    0.73490   0.66840   0.82020   Biso      1.000     H          0.101309  
         H17       1.0000    0.77220   0.02930   0.24290   Biso      1.000     H          0.12484100000000001           
         H18       1.0000    0.74310   0.15380   0.30640   Biso      1.000     H          0.10635399999999999           
         H19       1.0000    0.10680   0.21310   0.68170   Biso      1.000     H          0.113392  
         H20       1.0000    0.07230   0.09300   0.50720   Biso      1.000     H          0.135792  
         H21       1.0000    0.73830   0.25930   0.47590   Biso      1.000     H          0.129251  
         H22       1.0000    0.77820   0.38210   0.64770   Biso      1.000     H          0.11383399999999999           
         H23       1.0000    0.40870   0.95940   0.05560   Biso      1.000     H          0.120457  
         H24       1.0000    0.22180   0.61790   0.35230   Biso      1.000     H          0.11383299999999999           
         H25       1.0000    0.91840   0.82440   0.80580   Biso      1.000     H          0.13347699999999998           
         H26       1.0000    0.92770   0.90700   0.49280   Biso      1.000     H          0.135793  
         H27       1.0000    0.90870   0.94440   0.04060   Biso      1.000     H          0.120457  
         H28       1.0000    0.90850   0.07330   0.06790   Biso      1.000     H          0.116264  
         H29       1.0000    0.21840   0.86370   0.27650   Biso      1.000     H          0.09614600000000001           
         H30       1.0000    0.06340   0.85210   0.13810   Biso      1.000     H          0.137453  
         H31       1.0000    0.26170   0.74070   0.52410   Biso      1.000     H          0.129252  
         H32       1.0000    0.23490   0.17980   0.33160   Biso      1.000     H          0.101309  
         H33       1.0000    0.27220   0.75710   0.97070   Biso      1.000     H          0.12484   
         H34       1.0000    0.24310   0.69360   0.84620   Biso      1.000     H          0.10635399999999999           
         H35       1.0000    0.60680   0.31830   0.78690   Biso      1.000     H          0.11339300000000001           
         H36       1.0000    0.57230   0.49280   0.90700   Biso      1.000     H          0.135792  
         H37       1.0000    0.08160   0.17560   0.19420   Biso      1.000     H          0.13347699999999998           
         H38       1.0000    0.27820   0.35230   0.61790   Biso      1.000     H          0.11383299999999999           
         H39       1.0000    0.59130   0.04060   0.94440   Biso      1.000     H          0.120457  
         H40       1.0000    0.59150   0.06790   0.07330   Biso      1.000     H          0.116263  
         H41       1.0000    0.28160   0.27650   0.86370   Biso      1.000     H          0.096147  
         H42       1.0000    0.43660   0.13810   0.85210   Biso      1.000     H          0.137453  
         H43       1.0000    0.41840   0.19420   0.17560   Biso      1.000     H          0.13347699999999998           
         H44       1.0000    0.26510   0.33160   0.17980   Biso      1.000     H          0.10131   
         H45       1.0000    0.22780   0.97070   0.75710   Biso      1.000     H          0.12484   
         H46       1.0000    0.25690   0.84620   0.69360   Biso      1.000     H          0.10635399999999999           
         H47       1.0000    0.89320   0.78690   0.31830   Biso      1.000     H          0.11339300000000001           
         H48       1.0000    0.23830   0.52410   0.74070   Biso      1.000     H          0.129252  
         N1        1.0000    0.75430   0.97831   0.68509   Biso      1.000     N          -0.209265           
         N2        1.0000    0.74570   0.68509   0.97831   Biso      1.000     N          -0.209265           
         N3        1.0000    0.24570   0.02169   0.31491   Biso      1.000     N          -0.20926599999999998          
         N4        1.0000    0.25430   0.31491   0.02169   Biso      1.000     N          -0.209267           
         O1        1.0000    0.11270   0.91321   0.62717   Biso      1.000     O          -0.18666300000000002          
         O2        1.0000    0.81220   0.45430   0.01642   Biso      1.000     O          -0.547796           
         O3        1.0000    0.95180   0.64363   0.13967   Biso      1.000     O          -0.577574           
         O4        1.0000    0.09610   0.52136   0.17736   Biso      1.000     O          -0.5546760000000001           
         O5        1.0000    0.40390   0.17736   0.52136   Biso      1.000     O          -0.5546760000000001           
         O6        1.0000    0.38730   0.62717   0.91321   Biso      1.000     O          -0.18666300000000002          
         O7        1.0000    0.54820   0.13967   0.64363   Biso      1.000     O          -0.577576           
         O8        1.0000    0.95510   0.33284   0.05796   Biso      1.000     O          -0.573284           
         O9        1.0000    0.31220   0.98358   0.54570   Biso      1.000     O          -0.547797           
         O10       1.0000    0.45510   0.94204   0.66716   Biso      1.000     O          -0.573283           
         O11       1.0000    0.61270   0.37283   0.08679   Biso      1.000     O          -0.186664           
         O12       1.0000    0.18780   0.54570   0.98358   Biso      1.000     O          -0.547797           
         O13       1.0000    0.59610   0.82264   0.47864   Biso      1.000     O          -0.554675           
         O14       1.0000    0.68780   0.01642   0.45430   Biso      1.000     O          -0.547796           
         O15       1.0000    0.54490   0.05796   0.33284   Biso      1.000     O          -0.573284           
         O16       1.0000    0.88730   0.08679   0.37283   Biso      1.000     O          -0.18666300000000002          
         O17       1.0000    0.04820   0.35637   0.86033   Biso      1.000     O          -0.577575           
         O18       1.0000    0.90390   0.47864   0.82264   Biso      1.000     O          -0.554675           
         O19       1.0000    0.04490   0.66716   0.94204   Biso      1.000     O          -0.573283           
         O20       1.0000    0.45180   0.86033   0.35637   Biso      1.000     O          -0.577577           
         Zn1       1.0000    0.39971   0.02185   0.42005   Biso      1.000     Zn          0.8479389999999999  
         Zn2       1.0000    0.10029   0.42005   0.02185   Biso      1.000     Zn          0.8479389999999999  
         Zn3       1.0000    0.60029   0.97815   0.57995   Biso      1.000     Zn          0.847937  
         Zn4       1.0000    0.89971   0.57995   0.97815   Biso      1.000     Zn          0.847936 