
##########################################################################
#               Crystallographic Information Format file
#               Produced by PyCifRW module
#
#  This is a CIF file.  CIF has been adopted by the International
#  Union of Crystallography as the standard for data archiving and
#  transmission.
#
#  For information on this file format, follow the CIF links at
#  http://www.iucr.org
##########################################################################

data_image0

_cell_length_a                          8.206
_cell_length_b                          14.1833
_cell_length_c                          14.1833
_cell_angle_alpha                       110.031
_cell_angle_beta                        91.265
_cell_angle_gamma                       88.735
_symmetry_space_group_name_H-M          'P 1'
_symmetry_int_tables_number             1
loop_
  _symmetry_equiv_pos_as_xyz
         'x, y, z' 
loop_
  _atom_site_label
  _atom_site_occupancy
  _atom_site_fract_x
  _atom_site_fract_y
  _atom_site_fract_z
  _atom_site_thermal_displace_type
  _atom_site_B_iso_or_equiv
  _atom_site_type_symbol
  _atom_site_charge
         C1        1.0000    0.16960   0.17190   0.58450   Biso      1.000     C          -0.164706           
         C2        1.0000    0.71670   0.53430   0.31670   Biso      1.000     C          -0.121349           
         C3        1.0000    0.72590   0.43130   0.27610   Biso      1.000     C          -0.10603  
         C4        1.0000    0.63650   0.38420   0.33300   Biso      1.000     C          -0.166313           
         C5        1.0000    0.79480   0.60770   0.27970   Biso      1.000     C          0.588548  
         C6        1.0000    0.27490   0.20260   0.52680   Biso      1.000     C          -0.00992  
         C7        1.0000    0.19400   0.02420   0.45020   Biso      1.000     C          -0.103085           
         C8        1.0000    0.12380   0.07140   0.54040   Biso      1.000     C          -0.102384           
         C9        1.0000    0.66960   0.41550   0.82810   Biso      1.000     C          -0.164706           
         C10       1.0000    0.15830   0.92280   0.37860   Biso      1.000     C          0.604978  
         C11       1.0000    0.88510   0.33450   0.52610   Biso      1.000     C          0.097563  
         C12       1.0000    0.95940   0.41120   0.50300   Biso      1.000     C          -0.189437           
         C13       1.0000    0.98020   0.50720   0.57400   Biso      1.000     C          0.107316  
         C14       1.0000    0.56830   0.44890   0.41470   Biso      1.000     C          -0.00384  
         C15       1.0000    0.91860   0.52640   0.66980   Biso      1.000     C          -0.215436           
         C16       1.0000    0.82710   0.35650   0.62490   Biso      1.000     C          -0.200697           
         C17       1.0000    0.86720   0.23260   0.45220   Biso      1.000     C          -0.001391           
         C18       1.0000    0.80000   0.05460   0.36760   Biso      1.000     C          -0.13582  
         C19       1.0000    0.91470   0.08780   0.31760   Biso      1.000     C          -0.115556           
         C20       1.0000    0.95170   0.18970   0.36510   Biso      1.000     C          -0.164463           
         C21       1.0000    0.72900   0.95370   0.34050   Biso      1.000     C          0.611478  
         C22       1.0000    0.06830   0.58530   0.55110   Biso      1.000     C          -0.003869           
         C23       1.0000    0.21670   0.68330   0.46570   Biso      1.000     C          -0.121349           
         C24       1.0000    0.22590   0.72390   0.56870   Biso      1.000     C          -0.106035           
         C25       1.0000    0.13650   0.66700   0.61580   Biso      1.000     C          -0.166281           
         C26       1.0000    0.29480   0.72030   0.39230   Biso      1.000     C          0.588549  
         C27       1.0000    0.77490   0.47320   0.79740   Biso      1.000     C          -0.009917           
         C28       1.0000    0.84250   0.45220   0.69660   Biso      1.000     C          0.100297  
         C29       1.0000    0.22900   0.65950   0.04630   Biso      1.000     C          0.611476  
         C30       1.0000    0.45170   0.63490   0.81030   Biso      1.000     C          -0.164465           
         C31       1.0000    0.41470   0.68240   0.91220   Biso      1.000     C          -0.115569           
         C32       1.0000    0.65830   0.62140   0.07720   Biso      1.000     C          0.604978  
         C33       1.0000    0.69400   0.54980   0.97580   Biso      1.000     C          -0.103085           
         C34       1.0000    0.38510   0.47390   0.66550   Biso      1.000     C          0.097563  
         C35       1.0000    0.45940   0.49700   0.58880   Biso      1.000     C          -0.189437           
         C36       1.0000    0.48020   0.42600   0.49280   Biso      1.000     C          0.107314  
         C37       1.0000    0.62380   0.45960   0.92860   Biso      1.000     C          -0.102384           
         C38       1.0000    0.34250   0.30340   0.54780   Biso      1.000     C          0.100299  
         C39       1.0000    0.32710   0.37510   0.64350   Biso      1.000     C          -0.200697           
         C40       1.0000    0.30000   0.63240   0.94540   Biso      1.000     C          -0.135805           
         C41       1.0000    0.36720   0.54780   0.76740   Biso      1.000     C          -0.001388           
         C42       1.0000    0.41860   0.33020   0.47360   Biso      1.000     C          -0.215436           
         H1        1.0000    0.49730   0.56320   0.60220   Biso      1.000     H          0.116965  
         H2        1.0000    0.42870   0.28180   0.40820   Biso      1.000     H          0.114057  
         H3        1.0000    0.27710   0.35740   0.69480   Biso      1.000     H          0.116775  
         H4        1.0000    0.46390   0.74290   0.95370   Biso      1.000     H          0.130334  
         H5        1.0000    0.52670   0.66030   0.77510   Biso      1.000     H          0.135016  
         H6        1.0000    0.78460   0.39560   0.21720   Biso      1.000     H          0.140324  
         H7        1.0000    0.62670   0.31350   0.31430   Biso      1.000     H          0.12904   
         H8        1.0000    0.13170   0.21460   0.64780   Biso      1.000     H          0.132681  
         H9        1.0000    0.99730   0.39780   0.43680   Biso      1.000     H          0.116966  
         H10       1.0000    0.92870   0.59180   0.71820   Biso      1.000     H          0.114057  
         H11       1.0000    0.77710   0.30520   0.64260   Biso      1.000     H          0.116775  
         H12       1.0000    0.02670   0.22490   0.33970   Biso      1.000     H          0.135017  
         H13       1.0000    0.28460   0.78280   0.60440   Biso      1.000     H          0.140325  
         H14       1.0000    0.12670   0.68570   0.68650   Biso      1.000     H          0.129037  
         H15       1.0000    0.55090   0.42930   0.96050   Biso      1.000     H          0.13823   
         H16       1.0000    0.63170   0.35220   0.78540   Biso      1.000     H          0.132681  
         H17       1.0000    0.05090   0.03950   0.57070   Biso      1.000     H          0.13823   
         H18       1.0000    0.96390   0.04630   0.25710   Biso      1.000     H          0.130334  
         La1       1.0000    0.00345   0.74878   0.21800   Biso      1.000     La          1.923142  
         La2       1.0000    0.50345   0.78200   0.25122   Biso      1.000     La          1.923142  
         O1        1.0000    0.24750   0.68460   0.30040   Biso      1.000     O          -0.674661           
         O2        1.0000    0.40610   0.78180   0.42080   Biso      1.000     O          -0.55221  
         O3        1.0000    0.60950   0.94070   0.38770   Biso      1.000     O          -0.562452           
         O4        1.0000    0.79030   0.88330   0.26770   Biso      1.000     O          -0.698898           
         O5        1.0000    0.23630   0.89120   0.29580   Biso      1.000     O          -0.724052           
         O6        1.0000    0.05320   0.87110   0.39850   Biso      1.000     O          -0.548075           
         O7        1.0000    0.74750   0.69960   0.31540   Biso      1.000     O          -0.674661           
         O8        1.0000    0.55320   0.60150   0.12890   Biso      1.000     O          -0.548075           
         O9        1.0000    0.90610   0.57920   0.21820   Biso      1.000     O          -0.552211           
         O10       1.0000    0.29030   0.73230   0.11670   Biso      1.000     O          -0.698898           
         O11       1.0000    0.10950   0.61230   0.05930   Biso      1.000     O          -0.562451           
         O12       1.0000    0.73630   0.70420   0.10880   Biso      1.000     O          -0.724052           
         S1        1.0000    0.82130   0.58136   0.89592   Biso      1.000     S          0.10921   
         S2        1.0000    0.09990   0.57633   0.42823   Biso      1.000     S          0.134273  
         S3        1.0000    0.73590   0.14936   0.47318   Biso      1.000     S          0.130548  
         S4        1.0000    0.32130   0.10408   0.41864   Biso      1.000     S          0.109212  
         S5        1.0000    0.59990   0.57177   0.42367   Biso      1.000     S          0.134272  
         S6        1.0000    0.23590   0.52682   0.85064   Biso      1.000     S          0.130546 