
##########################################################################
#               Crystallographic Information Format file
#               Produced by PyCifRW module
#
#  This is a CIF file.  CIF has been adopted by the International
#  Union of Crystallography as the standard for data archiving and
#  transmission.
#
#  For information on this file format, follow the CIF links at
#  http://www.iucr.org
##########################################################################

data_image0

_cell_length_a                          8.172
_cell_length_b                          14.1969
_cell_length_c                          14.1969
_cell_angle_alpha                       110.241
_cell_angle_beta                        91.0476
_cell_angle_gamma                       88.9524
_symmetry_space_group_name_H-M          'P 1'
_symmetry_int_tables_number             1
loop_
  _symmetry_equiv_pos_as_xyz
         'x, y, z' 
loop_
  _atom_site_label
  _atom_site_occupancy
  _atom_site_fract_x
  _atom_site_fract_y
  _atom_site_fract_z
  _atom_site_thermal_displace_type
  _atom_site_B_iso_or_equiv
  _atom_site_type_symbol
  _atom_site_charge
         C1        1.0000    0.23240   0.28080   0.47460   Biso      1.000     C          -0.162913           
         C2        1.0000    0.98240   0.17060   0.63340   Biso      1.000     C          -0.214975           
         C3        1.0000    0.05780   0.24380   0.60580   Biso      1.000     C          0.100486  
         C4        1.0000    0.07330   0.34000   0.67820   Biso      1.000     C          -0.202778           
         C5        1.0000    0.03360   0.46420   0.85120   Biso      1.000     C          -0.001906           
         C6        1.0000    0.10170   0.64130   0.93570   Biso      1.000     C          -0.12694  
         C7        1.0000    0.98870   0.60880   0.98600   Biso      1.000     C          -0.116447           
         C8        1.0000    0.95070   0.50690   0.93710   Biso      1.000     C          -0.164162           
         C9        1.0000    0.17360   0.74450   0.96390   Biso      1.000     C          0.618137  
         C10       1.0000    0.83480   0.11270   0.75430   Biso      1.000     C          -0.013749           
         C11       1.0000    0.68690   0.01310   0.83950   Biso      1.000     C          -0.121735           
         C12       1.0000    0.67640   0.97150   0.73530   Biso      1.000     C          -0.099001           
         C13       1.0000    0.76260   0.02750   0.68750   Biso      1.000     C          -0.170978           
         C14       1.0000    0.60980   0.97760   0.91200   Biso      1.000     C          0.589223  
         C15       1.0000    0.12710   0.22290   0.50450   Biso      1.000     C          -0.016633           
         C16       1.0000    0.20470   0.14580   0.32840   Biso      1.000     C          -0.105011           
         C17       1.0000    0.27770   0.23650   0.37390   Biso      1.000     C          -0.100432           
         C18       1.0000    0.44120   0.19930   0.71430   Biso      1.000     C          -0.194004           
         C19       1.0000    0.92120   0.18990   0.72870   Biso      1.000     C          0.10943   
         C20       1.0000    0.94120   0.28570   0.80070   Biso      1.000     C          -0.194004           
         C21       1.0000    0.01740   0.36180   0.77620   Biso      1.000     C          0.100847  
         C22       1.0000    0.42120   0.27130   0.81010   Biso      1.000     C          0.109428  
         C23       1.0000    0.74110   0.77370   0.92510   Biso      1.000     C          0.607063  
         C24       1.0000    0.73240   0.52540   0.71920   Biso      1.000     C          -0.162912           
         C25       1.0000    0.77770   0.62610   0.76350   Biso      1.000     C          -0.10044  
         C26       1.0000    0.70470   0.67160   0.85420   Biso      1.000     C          -0.105002           
         C27       1.0000    0.62710   0.49550   0.77710   Biso      1.000     C          -0.016633           
         C28       1.0000    0.10980   0.08800   0.02240   Biso      1.000     C          0.589223  
         C29       1.0000    0.26260   0.31250   0.97250   Biso      1.000     C          -0.17098  
         C30       1.0000    0.17640   0.26470   0.02850   Biso      1.000     C          -0.099001           
         C31       1.0000    0.24110   0.07490   0.22630   Biso      1.000     C          0.607064  
         C32       1.0000    0.18690   0.16050   0.98690   Biso      1.000     C          -0.121734           
         C33       1.0000    0.67360   0.03610   0.25550   Biso      1.000     C          0.618136  
         C34       1.0000    0.45070   0.06290   0.49310   Biso      1.000     C          -0.164178           
         C35       1.0000    0.48870   0.01400   0.39120   Biso      1.000     C          -0.116457           
         C36       1.0000    0.60170   0.06430   0.35870   Biso      1.000     C          -0.126928           
         C37       1.0000    0.53360   0.14880   0.53580   Biso      1.000     C          -0.001891           
         C38       1.0000    0.57330   0.32180   0.66000   Biso      1.000     C          -0.202777           
         C39       1.0000    0.55780   0.39420   0.75620   Biso      1.000     C          0.100484  
         C40       1.0000    0.48240   0.36660   0.82940   Biso      1.000     C          -0.214972           
         C41       1.0000    0.33480   0.24570   0.88730   Biso      1.000     C          -0.013747           
         C42       1.0000    0.51740   0.22380   0.63820   Biso      1.000     C          0.100845  
         Ce1       1.0000    0.39888   0.91447   0.05243   Biso      1.000     Ce          2.089945  
         Ce2       1.0000    0.89888   0.94757   0.08553   Biso      1.000     Ce          2.089945  
         H1        1.0000    0.90260   0.29930   0.86690   Biso      1.000     H          0.119383  
         H2        1.0000    0.97250   0.10490   0.58530   Biso      1.000     H          0.11437   
         H3        1.0000    0.12290   0.39140   0.66040   Biso      1.000     H          0.116825  
         H4        1.0000    0.94070   0.65000   0.04720   Biso      1.000     H          0.130845  
         H5        1.0000    0.87450   0.47180   0.96200   Biso      1.000     H          0.13309   
         H6        1.0000    0.61780   0.91220   0.70020   Biso      1.000     H          0.140896  
         H7        1.0000    0.77020   0.00850   0.61670   Biso      1.000     H          0.130716  
         H8        1.0000    0.35080   0.26600   0.34120   Biso      1.000     H          0.138352  
         H9        1.0000    0.77070   0.48250   0.65590   Biso      1.000     H          0.133817  
         H10       1.0000    0.40260   0.13310   0.70070   Biso      1.000     H          0.119384  
         H11       1.0000    0.47250   0.41470   0.89510   Biso      1.000     H          0.11437   
         H12       1.0000    0.62290   0.33960   0.60860   Biso      1.000     H          0.116825  
         H13       1.0000    0.44070   0.95280   0.35000   Biso      1.000     H          0.130845  
         H14       1.0000    0.37450   0.03800   0.52820   Biso      1.000     H          0.133091  
         H15       1.0000    0.11780   0.29980   0.08780   Biso      1.000     H          0.140896  
         H16       1.0000    0.27020   0.38330   0.99150   Biso      1.000     H          0.130716  
         H17       1.0000    0.85080   0.65880   0.73400   Biso      1.000     H          0.138352  
         H18       1.0000    0.27070   0.34410   0.51750   Biso      1.000     H          0.133817  
         O1        1.0000    0.34940   0.09480   0.17400   Biso      1.000     O          -0.572384           
         O2        1.0000    0.16390   0.99090   0.19270   Biso      1.000     O          -0.771852           
         O3        1.0000    0.15820   0.99470   0.98830   Biso      1.000     O          -0.722847           
         O4        1.0000    0.79580   0.08180   0.24140   Biso      1.000     O          -0.585594           
         O5        1.0000    0.99540   0.11520   0.08420   Biso      1.000     O          -0.576847           
         O6        1.0000    0.65820   0.01170   0.00530   Biso      1.000     O          -0.722847           
         O7        1.0000    0.61040   0.96360   0.18540   Biso      1.000     O          -0.741727           
         O8        1.0000    0.49540   0.91580   0.88480   Biso      1.000     O          -0.576847           
         O9        1.0000    0.66390   0.80730   0.00910   Biso      1.000     O          -0.771852           
         O10       1.0000    0.11040   0.81460   0.03640   Biso      1.000     O          -0.741727           
         O11       1.0000    0.84940   0.82600   0.90520   Biso      1.000     O          -0.572384           
         O12       1.0000    0.29580   0.75860   0.91820   Biso      1.000     O          -0.585594           
         S1        1.0000    0.58030   0.59296   0.88530   Biso      1.000     S          0.130165  
         S2        1.0000    0.66620   0.17027   0.45201   Biso      1.000     S          0.123768  
         S3        1.0000    0.08030   0.11470   0.40704   Biso      1.000     S          0.130167  
         S4        1.0000    0.80310   0.12046   0.87600   Biso      1.000     S          0.155553  
         S5        1.0000    0.16620   0.54799   0.82973   Biso      1.000     S          0.123771  
         S6        1.0000    0.30310   0.12400   0.87954   Biso      1.000     S          0.155552 