
##########################################################################
#               Crystallographic Information Format file
#               Produced by PyCifRW module
#
#  This is a CIF file.  CIF has been adopted by the International
#  Union of Crystallography as the standard for data archiving and
#  transmission.
#
#  For information on this file format, follow the CIF links at
#  http://www.iucr.org
##########################################################################

data_image0

_cell_length_a                          7.056
_cell_length_b                          15.0117
_cell_length_c                          23.0776
_cell_angle_alpha                       90
_cell_angle_beta                        90
_cell_angle_gamma                       93.415
_symmetry_space_group_name_H-M          'P 1'
_symmetry_int_tables_number             1
loop_
  _symmetry_equiv_pos_as_xyz
         'x, y, z' 
loop_
  _atom_site_label
  _atom_site_occupancy
  _atom_site_fract_x
  _atom_site_fract_y
  _atom_site_fract_z
  _atom_site_thermal_displace_type
  _atom_site_B_iso_or_equiv
  _atom_site_type_symbol
  _atom_site_charge
         C1        1.0000    0.79990   0.46680   0.73040   Biso      1.000     C          0.619287  
         C2        1.0000    0.72590   0.73600   0.76500   Biso      1.000     C          0.629128  
         C3        1.0000    0.86720   0.35100   0.80360   Biso      1.000     C          -0.09869299999999999          
         C4        1.0000    0.75680   0.83590   0.67810   Biso      1.000     C          -0.090246           
         C5        1.0000    0.91910   0.26580   0.81810   Biso      1.000     C          -0.106526           
         C6        1.0000    0.76930   0.92090   0.65240   Biso      1.000     C          -0.10943399999999999          
         C7        1.0000    0.96690   0.20620   0.77320   Biso      1.000     C          -0.05853099999999999          
         C8        1.0000    0.75570   0.99560   0.68680   Biso      1.000     C          -0.079079           
         C9        1.0000    0.95450   0.23110   0.71640   Biso      1.000     C          -0.194824           
         C10       1.0000    0.74020   0.98780   0.74680   Biso      1.000     C          -0.223806           
         C11       1.0000    0.89870   0.31560   0.70230   Biso      1.000     C          0.35985   
         C12       1.0000    0.73640   0.90360   0.77190   Biso      1.000     C          0.36865   
         C13       1.0000    0.23740   0.82600   0.76160   Biso      1.000     C          -0.159743           
         C14       1.0000    0.85690   0.37700   0.74510   Biso      1.000     C          -0.201743           
         C15       1.0000    0.70010   0.53320   0.23040   Biso      1.000     C          0.619287  
         C16       1.0000    0.77410   0.26400   0.26500   Biso      1.000     C          0.629128  
         C17       1.0000    0.63280   0.64900   0.30360   Biso      1.000     C          -0.09869299999999999          
         C18       1.0000    0.74320   0.16410   0.17810   Biso      1.000     C          -0.09024700000000001          
         C19       1.0000    0.58090   0.73420   0.31810   Biso      1.000     C          -0.106526           
         C20       1.0000    0.53310   0.79380   0.27320   Biso      1.000     C          -0.05853099999999999          
         C21       1.0000    0.74430   0.00440   0.18680   Biso      1.000     C          -0.07908  
         C22       1.0000    0.54550   0.76890   0.21640   Biso      1.000     C          -0.194824           
         C23       1.0000    0.75980   0.01220   0.24680   Biso      1.000     C          -0.223806           
         C24       1.0000    0.60130   0.68440   0.20230   Biso      1.000     C          0.35985   
         C25       1.0000    0.76360   0.09640   0.27190   Biso      1.000     C          0.36865   
         C26       1.0000    0.73740   0.82600   0.73840   Biso      1.000     C          -0.159744           
         C27       1.0000    0.64310   0.62300   0.24510   Biso      1.000     C          -0.201743           
         C28       1.0000    0.35690   0.37700   0.75490   Biso      1.000     C          -0.20174  
         C29       1.0000    0.39870   0.31560   0.79770   Biso      1.000     C          0.359849  
         C30       1.0000    0.20010   0.53320   0.26960   Biso      1.000     C          0.619287  
         C31       1.0000    0.27410   0.26400   0.23500   Biso      1.000     C          0.629127  
         C32       1.0000    0.13280   0.64900   0.19640   Biso      1.000     C          -0.098694           
         C33       1.0000    0.24320   0.16410   0.32190   Biso      1.000     C          -0.09024700000000001          
         C34       1.0000    0.08090   0.73420   0.18190   Biso      1.000     C          -0.106526           
         C35       1.0000    0.23070   0.07910   0.34760   Biso      1.000     C          -0.10943399999999999          
         C36       1.0000    0.03310   0.79380   0.22680   Biso      1.000     C          -0.05853099999999999          
         C37       1.0000    0.24430   0.00440   0.31320   Biso      1.000     C          -0.079079           
         C38       1.0000    0.04550   0.76890   0.28360   Biso      1.000     C          -0.194824           
         C39       1.0000    0.25980   0.01220   0.25320   Biso      1.000     C          -0.223806           
         C40       1.0000    0.10130   0.68440   0.29770   Biso      1.000     C          0.35985   
         C41       1.0000    0.23640   0.90360   0.72810   Biso      1.000     C          0.36865   
         C42       1.0000    0.26360   0.09640   0.22810   Biso      1.000     C          0.36865   
         C43       1.0000    0.26260   0.17400   0.26160   Biso      1.000     C          -0.159744           
         C44       1.0000    0.29990   0.46680   0.76960   Biso      1.000     C          0.6192850000000001  
         C45       1.0000    0.22590   0.73600   0.73500   Biso      1.000     C          0.629127  
         C46       1.0000    0.36720   0.35100   0.69640   Biso      1.000     C          -0.098695           
         C47       1.0000    0.25680   0.83590   0.82190   Biso      1.000     C          -0.09024700000000001          
         C48       1.0000    0.41910   0.26580   0.68190   Biso      1.000     C          -0.106526           
         C49       1.0000    0.26930   0.92090   0.84760   Biso      1.000     C          -0.10943399999999999          
         C50       1.0000    0.46690   0.20620   0.72680   Biso      1.000     C          -0.05853099999999999          
         C51       1.0000    0.25570   0.99560   0.81320   Biso      1.000     C          -0.079079           
         C52       1.0000    0.45450   0.23110   0.78360   Biso      1.000     C          -0.194825           
         C53       1.0000    0.24020   0.98780   0.75320   Biso      1.000     C          -0.223807           
         C54       1.0000    0.14310   0.62300   0.25490   Biso      1.000     C          -0.201743           
         C55       1.0000    0.76260   0.17400   0.23840   Biso      1.000     C          -0.159744           
         C56       1.0000    0.73070   0.07910   0.15240   Biso      1.000     C          -0.10943299999999999          
         H1        1.0000    0.49700   0.79500   0.54300   Biso      1.000     H          0.41258199999999995           
         H2        1.0000    0.74900   0.57600   0.75700   Biso      1.000     H          0.390495  
         H3        1.0000    0.02600   0.67100   0.62600   Biso      1.000     H          0.40429499999999996           
         H4        1.0000    0.89200   0.60000   0.62400   Biso      1.000     H          0.373185  
         H5        1.0000    0.52900   0.27400   0.49600   Biso      1.000     H          0.395242  
         H6        1.0000    0.50300   0.20500   0.45700   Biso      1.000     H          0.41258199999999995           
         H7        1.0000    0.83860   0.39190   0.83340   Biso      1.000     H          0.12209500000000001           
         H8        1.0000    0.76160   0.78440   0.65440   Biso      1.000     H          0.11119100000000001           
         H9        1.0000    0.00760   0.14880   0.78280   Biso      1.000     H          0.117345  
         H10       1.0000    0.85900   0.38300   0.64200   Biso      1.000     H          0.42987200000000003           
         H11       1.0000    0.69000   0.85000   0.85500   Biso      1.000     H          0.41242799999999996           
         H12       1.0000    0.74300   0.94710   0.16930   Biso      1.000     H          0.11573800000000001           
         H13       1.0000    0.51600   0.80950   0.18650   Biso      1.000     H          0.146067  
         H14       1.0000    0.76770   0.96060   0.27030   Biso      1.000     H          0.130449  
         H15       1.0000    0.75100   0.42400   0.25700   Biso      1.000     H          0.390495  
         H16       1.0000    0.16140   0.60810   0.16660   Biso      1.000     H          0.12209500000000001           
         H17       1.0000    0.60800   0.40000   0.12400   Biso      1.000     H          0.373185  
         H18       1.0000    0.97100   0.72600   0.99600   Biso      1.000     H          0.395242  
         H19       1.0000    0.99700   0.79500   0.95700   Biso      1.000     H          0.41258199999999995           
         H20       1.0000    0.66140   0.60810   0.33340   Biso      1.000     H          0.12209500000000001           
         H21       1.0000    0.73840   0.21560   0.15440   Biso      1.000     H          0.11119100000000001           
         H22       1.0000    0.49240   0.85120   0.28280   Biso      1.000     H          0.117345  
         H23       1.0000    0.64100   0.61700   0.14200   Biso      1.000     H          0.42987200000000003           
         H24       1.0000    0.81000   0.15000   0.35500   Biso      1.000     H          0.41242799999999996           
         H25       1.0000    0.73230   0.03940   0.77030   Biso      1.000     H          0.130449  
         H26       1.0000    0.98400   0.19050   0.68650   Biso      1.000     H          0.146067  
         H27       1.0000    0.47400   0.32900   0.12600   Biso      1.000     H          0.40429499999999996           
         H28       1.0000    0.19000   0.85000   0.64500   Biso      1.000     H          0.41242799999999996           
         H29       1.0000    0.75700   0.05290   0.66930   Biso      1.000     H          0.11573800000000001           
         H30       1.0000    0.47100   0.72600   0.50400   Biso      1.000     H          0.395243  
         H31       1.0000    0.10800   0.40000   0.37600   Biso      1.000     H          0.373185  
         H32       1.0000    0.97400   0.32900   0.37400   Biso      1.000     H          0.40429499999999996           
         H33       1.0000    0.25100   0.42400   0.24300   Biso      1.000     H          0.390495  
         H34       1.0000    0.26770   0.96060   0.22970   Biso      1.000     H          0.130449  
         H35       1.0000    0.24300   0.94710   0.33070   Biso      1.000     H          0.11573800000000001           
         H36       1.0000    0.23840   0.21560   0.34560   Biso      1.000     H          0.11119100000000001           
         H37       1.0000    0.99240   0.85120   0.21720   Biso      1.000     H          0.117345  
         H38       1.0000    0.14100   0.61700   0.35800   Biso      1.000     H          0.42987200000000003           
         H39       1.0000    0.31000   0.15000   0.14500   Biso      1.000     H          0.41242799999999996           
         H40       1.0000    0.25700   0.05290   0.83070   Biso      1.000     H          0.11573800000000001           
         H41       1.0000    0.01600   0.80950   0.31350   Biso      1.000     H          0.146067  
         H42       1.0000    0.23230   0.03940   0.72970   Biso      1.000     H          0.130449  
         H43       1.0000    0.48400   0.19050   0.81350   Biso      1.000     H          0.146067  
         H44       1.0000    0.50760   0.14880   0.71720   Biso      1.000     H          0.117345  
         H45       1.0000    0.26160   0.78440   0.84560   Biso      1.000     H          0.11119100000000001           
         H46       1.0000    0.33860   0.39190   0.66660   Biso      1.000     H          0.12209500000000001           
         H47       1.0000    0.35900   0.38300   0.85800   Biso      1.000     H          0.42987200000000003           
         H48       1.0000    0.02900   0.27400   0.00400   Biso      1.000     H          0.395242  
         H49       1.0000    0.00300   0.20500   0.04300   Biso      1.000     H          0.41258199999999995           
         H50       1.0000    0.39200   0.60000   0.87600   Biso      1.000     H          0.373185  
         H51       1.0000    0.52600   0.67100   0.87400   Biso      1.000     H          0.40429499999999996           
         H52       1.0000    0.24900   0.57600   0.74300   Biso      1.000     H          0.390495  
         O1        1.0000    0.37410   0.02070   0.93370   Biso      1.000     O          -0.708545           
         O2        1.0000    0.55600   0.16110   0.60620   Biso      1.000     O          -0.6803520000000001           
         O3        1.0000    0.38870   0.33560   0.85510   Biso      1.000     O          -0.565917           
         O4        1.0000    0.22920   0.89900   0.66890   Biso      1.000     O          -0.565296           
         O5        1.0000    0.06120   0.26040   0.04030   Biso      1.000     O          -0.872042           
         O6        1.0000    0.43660   0.64620   0.89840   Biso      1.000     O          -0.835614           
         O7        1.0000    0.78230   0.48810   0.67760   Biso      1.000     O          -0.578685           
         O8        1.0000    0.61880   0.90960   0.55030   Biso      1.000     O          -0.700978           
         O9        1.0000    0.77140   0.52150   0.77190   Biso      1.000     O          -0.511867           
         O10       1.0000    0.71250   0.66940   0.73140   Biso      1.000     O          -0.644333           
         O11       1.0000    0.95930   0.30500   0.92560   Biso      1.000     O          -0.6483869999999999           
         O12       1.0000    0.72360   0.18720   0.89930   Biso      1.000     O          -0.696434           
         O13       1.0000    0.44050   0.86450   0.93800   Biso      1.000     O          -0.673388           
         O14       1.0000    0.05600   0.16110   0.89380   Biso      1.000     O          -0.6803520000000001           
         O15       1.0000    0.94050   0.86450   0.56200   Biso      1.000     O          -0.673388           
         O16       1.0000    0.73160   0.73000   0.81940   Biso      1.000     O          -0.638681           
         O17       1.0000    0.22360   0.18720   0.60070   Biso      1.000     O          -0.696434           
         O18       1.0000    0.94400   0.83890   0.10620   Biso      1.000     O          -0.6803520000000001           
         O19       1.0000    0.45930   0.30500   0.57440   Biso      1.000     O          -0.6483869999999999           
         O20       1.0000    0.43880   0.73960   0.54030   Biso      1.000     O          -0.872042           
         O21       1.0000    0.87410   0.02070   0.56630   Biso      1.000     O          -0.708545           
         O22       1.0000    0.27080   0.10100   0.16890   Biso      1.000     O          -0.565296           
         O23       1.0000    0.11130   0.66440   0.35510   Biso      1.000     O          -0.565918           
         O24       1.0000    0.06340   0.35380   0.39840   Biso      1.000     O          -0.835614           
         O25       1.0000    0.12590   0.97930   0.43370   Biso      1.000     O          -0.708545           
         O26       1.0000    0.05950   0.13550   0.43800   Biso      1.000     O          -0.673388           
         O27       1.0000    0.11880   0.90960   0.94970   Biso      1.000     O          -0.700978           
         O28       1.0000    0.27640   0.81280   0.10070   Biso      1.000     O          -0.696434           
         O29       1.0000    0.04070   0.69500   0.07440   Biso      1.000     O          -0.6483869999999999           
         O30       1.0000    0.28750   0.33060   0.26860   Biso      1.000     O          -0.644333           
         O31       1.0000    0.22860   0.47850   0.22810   Biso      1.000     O          -0.511867           
         O32       1.0000    0.28230   0.48810   0.82240   Biso      1.000     O          -0.578685           
         O33       1.0000    0.23160   0.73000   0.68060   Biso      1.000     O          -0.638681           
         O34       1.0000    0.27140   0.52150   0.72810   Biso      1.000     O          -0.511867           
         O35       1.0000    0.21250   0.66940   0.76860   Biso      1.000     O          -0.644333           
         O36       1.0000    0.38120   0.09040   0.44970   Biso      1.000     O          -0.700978           
         O37       1.0000    0.93660   0.64620   0.60160   Biso      1.000     O          -0.835614           
         O38       1.0000    0.21770   0.51190   0.32240   Biso      1.000     O          -0.578685           
         O39       1.0000    0.72920   0.89900   0.83110   Biso      1.000     O          -0.565296           
         O40       1.0000    0.26840   0.27000   0.18060   Biso      1.000     O          -0.638681           
         O41       1.0000    0.88870   0.33560   0.64490   Biso      1.000     O          -0.565917           
         O42       1.0000    0.93880   0.73960   0.95970   Biso      1.000     O          -0.872042           
         O43       1.0000    0.77080   0.10100   0.33110   Biso      1.000     O          -0.565296           
         O44       1.0000    0.56340   0.35380   0.10160   Biso      1.000     O          -0.835614           
         O45       1.0000    0.62590   0.97930   0.06630   Biso      1.000     O          -0.708545           
         O46       1.0000    0.44400   0.83890   0.39380   Biso      1.000     O          -0.6803520000000001           
         O47       1.0000    0.55950   0.13550   0.06200   Biso      1.000     O          -0.673388           
         O48       1.0000    0.61130   0.66440   0.14490   Biso      1.000     O          -0.565917           
         O49       1.0000    0.88120   0.09040   0.05030   Biso      1.000     O          -0.700978           
         O50       1.0000    0.56120   0.26040   0.45970   Biso      1.000     O          -0.872042           
         O51       1.0000    0.77640   0.81280   0.39930   Biso      1.000     O          -0.696434           
         O52       1.0000    0.76840   0.27000   0.31940   Biso      1.000     O          -0.638681           
         O53       1.0000    0.71770   0.51190   0.17760   Biso      1.000     O          -0.578685           
         O54       1.0000    0.78750   0.33060   0.23140   Biso      1.000     O          -0.644333           
         O55       1.0000    0.54070   0.69500   0.42560   Biso      1.000     O          -0.6483869999999999           
         O56       1.0000    0.72860   0.47850   0.27190   Biso      1.000     O          -0.511867           
         Rb1       1.0000    0.00144   0.60708   0.87210   Biso      1.000     Rb          0.900824  
         Rb2       1.0000    0.61141   0.78335   0.04085   Biso      1.000     Rb          0.9167350000000001  
         Rb3       1.0000    0.99856   0.39292   0.12790   Biso      1.000     Rb          0.900824  
         Rb4       1.0000    0.78713   0.00681   0.93348   Biso      1.000     Rb          0.873352  
         Rb5       1.0000    0.88859   0.21665   0.54085   Biso      1.000     Rb          0.9167350000000001  
         Rb6       1.0000    0.50144   0.60708   0.62790   Biso      1.000     Rb          0.900824  
         Rb7       1.0000    0.28713   0.00681   0.56652   Biso      1.000     Rb          0.873352  
         Rb8       1.0000    0.38859   0.21665   0.95915   Biso      1.000     Rb          0.9167360000000001  
         Rb9       1.0000    0.21287   0.99319   0.06652   Biso      1.000     Rb          0.873353  
         Rb10      1.0000    0.71287   0.99319   0.43348   Biso      1.000     Rb          0.873353  
         Rb11      1.0000    0.49856   0.39292   0.37210   Biso      1.000     Rb          0.900825  
         Rb12      1.0000    0.11141   0.78335   0.45915   Biso      1.000     Rb          0.9167360000000001  
         S1        1.0000    0.69540   0.07060   0.07747   Biso      1.000     S          1.214659  
         S2        1.0000    0.58540   0.77316   0.38925   Biso      1.000     S          1.199676  
         S3        1.0000    0.80460   0.92940   0.57747   Biso      1.000     S          1.214659  
         S4        1.0000    0.91460   0.22684   0.88925   Biso      1.000     S          1.199676  
         S5        1.0000    0.30460   0.92940   0.92253   Biso      1.000     S          1.214659  
         S6        1.0000    0.19540   0.07060   0.42253   Biso      1.000     S          1.214659  
         S7        1.0000    0.08540   0.77316   0.11075   Biso      1.000     S          1.199676  
         S8        1.0000    0.41460   0.22684   0.61075   Biso      1.000     S          1.199676 