
##########################################################################
#               Crystallographic Information Format file
#               Produced by PyCifRW module
#
#  This is a CIF file.  CIF has been adopted by the International
#  Union of Crystallography as the standard for data archiving and
#  transmission.
#
#  For information on this file format, follow the CIF links at
#  http://www.iucr.org
##########################################################################

data_image0

_cell_length_a                          12.683
_cell_length_b                          12.683
_cell_length_c                          12.683
_cell_angle_alpha                       90
_cell_angle_beta                        90
_cell_angle_gamma                       90
_symmetry_space_group_name_H-M          'P 1'
_symmetry_int_tables_number             1
loop_
  _symmetry_equiv_pos_as_xyz
         'x, y, z' 
loop_
  _atom_site_label
  _atom_site_occupancy
  _atom_site_fract_x
  _atom_site_fract_y
  _atom_site_fract_z
  _atom_site_thermal_displace_type
  _atom_site_B_iso_or_equiv
  _atom_site_type_symbol
  _atom_site_charge
         C1        1.0000    0.72388   0.72388   0.52612   Biso      1.000     C          -0.177089           
         C2        1.0000    0.77612   0.27612   0.97388   Biso      1.000     C          -0.177868           
         C3        1.0000    0.47388   0.77612   0.77612   Biso      1.000     C          -0.170478           
         C4        1.0000    0.27612   0.47388   0.27612   Biso      1.000     C          -0.170902           
         C5        1.0000    0.47388   0.27612   0.27612   Biso      1.000     C          -0.170764           
         C6        1.0000    0.77612   0.77612   0.47388   Biso      1.000     C          -0.176202           
         C7        1.0000    0.27612   0.97388   0.77612   Biso      1.000     C          -0.170801           
         C8        1.0000    0.97388   0.47388   0.97388   Biso      1.000     C          -0.177791           
         C9        1.0000    0.97388   0.97388   0.47388   Biso      1.000     C          -0.176537           
         C10       1.0000    0.77612   0.47388   0.77612   Biso      1.000     C          -0.176634           
         C11       1.0000    0.47388   0.97388   0.97388   Biso      1.000     C          -0.170534           
         C12       1.0000    0.47388   0.47388   0.47388   Biso      1.000     C          -0.170965           
         C13       1.0000    0.97388   0.77612   0.27612   Biso      1.000     C          -0.177533           
         C14       1.0000    0.27612   0.77612   0.97388   Biso      1.000     C          -0.170618           
         C15       1.0000    0.97388   0.27612   0.77612   Biso      1.000     C          -0.176951           
         C16       1.0000    0.77612   0.97388   0.27612   Biso      1.000     C          -0.177509           
         C17       1.0000    0.22388   0.72388   0.02612   Biso      1.000     C          -0.170973           
         C18       1.0000    0.27612   0.27612   0.47388   Biso      1.000     C          -0.170865           
         C19       1.0000    0.52612   0.22388   0.22388   Biso      1.000     C          -0.170429           
         C20       1.0000    0.02612   0.22388   0.72388   Biso      1.000     C          -0.176159           
         C21       1.0000    0.02612   0.52612   0.02612   Biso      1.000     C          -0.171111           
         C22       1.0000    0.72388   0.22388   0.02612   Biso      1.000     C          -0.170537           
         C23       1.0000    0.72388   0.02612   0.22388   Biso      1.000     C          -0.170828           
         C24       1.0000    0.52612   0.52612   0.52612   Biso      1.000     C          -0.177401           
         C25       1.0000    0.52612   0.72388   0.72388   Biso      1.000     C          -0.177488           
         C26       1.0000    0.22388   0.52612   0.22388   Biso      1.000     C          -0.170955           
         C27       1.0000    0.02612   0.02612   0.52612   Biso      1.000     C          -0.176358           
         C28       1.0000    0.52612   0.02612   0.02612   Biso      1.000     C          -0.170448           
         C29       1.0000    0.72388   0.52612   0.72388   Biso      1.000     C          -0.176626           
         C30       1.0000    0.22388   0.22388   0.52612   Biso      1.000     C          -0.177034           
         C31       1.0000    0.22388   0.02612   0.72388   Biso      1.000     C          -0.17693  
         C32       1.0000    0.02612   0.72388   0.22388   Biso      1.000     C          -0.171017           
         Cd1       1.0000    0.37500   0.37500   0.37500   Biso      1.000     Cd          0.689529  
         Cd2       1.0000    0.37500   0.87500   0.87500   Biso      1.000     Cd          0.68889   
         Cd3       1.0000    0.87500   0.37500   0.87500   Biso      1.000     Cd          0.702294  
         Cd4       1.0000    0.87500   0.87500   0.37500   Biso      1.000     Cd          0.701683  
         Cd5       1.0000    0.62500   0.62500   0.62500   Biso      1.000     Cd          0.702051  
         Cd6       1.0000    0.12500   0.12500   0.62500   Biso      1.000     Cd          0.701059  
         Cd7       1.0000    0.12500   0.62500   0.12500   Biso      1.000     Cd          0.689932  
         Cd8       1.0000    0.62500   0.12500   0.12500   Biso      1.000     Cd          0.688899 