
##########################################################################
#               Crystallographic Information Format file
#               Produced by PyCifRW module
#
#  This is a CIF file.  CIF has been adopted by the International
#  Union of Crystallography as the standard for data archiving and
#  transmission.
#
#  For information on this file format, follow the CIF links at
#  http://www.iucr.org
##########################################################################

data_image0

_cell_length_a                          12.6308
_cell_length_b                          12.6308
_cell_length_c                          12.6308
_cell_angle_alpha                       90
_cell_angle_beta                        90
_cell_angle_gamma                       90
_symmetry_space_group_name_H-M          'P 1'
_symmetry_int_tables_number             1
loop_
  _symmetry_equiv_pos_as_xyz
         'x, y, z' 
loop_
  _atom_site_label
  _atom_site_occupancy
  _atom_site_fract_x
  _atom_site_fract_y
  _atom_site_fract_z
  _atom_site_thermal_displace_type
  _atom_site_B_iso_or_equiv
  _atom_site_type_symbol
  _atom_site_charge
         C1        1.0000    0.72360   0.72360   0.52640   Biso      1.000     C          -0.174528           
         C2        1.0000    0.77640   0.27640   0.97360   Biso      1.000     C          -0.17416800000000002          
         C3        1.0000    0.47360   0.77640   0.77640   Biso      1.000     C          -0.179738           
         C4        1.0000    0.27640   0.47360   0.27640   Biso      1.000     C          -0.170874           
         C5        1.0000    0.47360   0.27640   0.27640   Biso      1.000     C          -0.170963           
         C6        1.0000    0.77640   0.77640   0.47360   Biso      1.000     C          -0.170542           
         C7        1.0000    0.27640   0.97360   0.77640   Biso      1.000     C          -0.179421           
         C8        1.0000    0.97360   0.47360   0.97360   Biso      1.000     C          -0.178098           
         C9        1.0000    0.97360   0.97360   0.47360   Biso      1.000     C          -0.170855           
         C10       1.0000    0.77640   0.47360   0.77640   Biso      1.000     C          -0.179507           
         C11       1.0000    0.47360   0.97360   0.97360   Biso      1.000     C          -0.173796           
         C12       1.0000    0.47360   0.47360   0.47360   Biso      1.000     C          -0.170999           
         C13       1.0000    0.97360   0.77640   0.27640   Biso      1.000     C          -0.17038599999999998          
         C14       1.0000    0.27640   0.77640   0.97360   Biso      1.000     C          -0.178018           
         C15       1.0000    0.97360   0.27640   0.77640   Biso      1.000     C          -0.179681           
         C16       1.0000    0.77640   0.97360   0.27640   Biso      1.000     C          -0.170983           
         C17       1.0000    0.22360   0.72360   0.02640   Biso      1.000     C          -0.17081400000000002          
         C18       1.0000    0.27640   0.27640   0.47360   Biso      1.000     C          -0.17107  
         C19       1.0000    0.52640   0.22360   0.22360   Biso      1.000     C          -0.17938199999999999          
         C20       1.0000    0.02640   0.22360   0.72360   Biso      1.000     C          -0.173881           
         C21       1.0000    0.02640   0.52640   0.02640   Biso      1.000     C          -0.17086300000000001          
         C22       1.0000    0.72360   0.22360   0.02640   Biso      1.000     C          -0.177543           
         C23       1.0000    0.72360   0.02640   0.22360   Biso      1.000     C          -0.179248           
         C24       1.0000    0.52640   0.52640   0.52640   Biso      1.000     C          -0.17440899999999998          
         C25       1.0000    0.52640   0.72360   0.72360   Biso      1.000     C          -0.1748   
         C26       1.0000    0.22360   0.52640   0.22360   Biso      1.000     C          -0.171425           
         C27       1.0000    0.02640   0.02640   0.52640   Biso      1.000     C          -0.17336600000000002          
         C28       1.0000    0.52640   0.02640   0.02640   Biso      1.000     C          -0.17744200000000002          
         C29       1.0000    0.72360   0.52640   0.72360   Biso      1.000     C          -0.17481300000000002          
         C30       1.0000    0.22360   0.22360   0.52640   Biso      1.000     C          -0.173374           
         C31       1.0000    0.22360   0.02640   0.72360   Biso      1.000     C          -0.17376  
         C32       1.0000    0.02640   0.72360   0.22360   Biso      1.000     C          -0.171336           
         Cd1       1.0000    0.37500   0.37500   0.37500   Biso      1.000     Cd          0.690493  
         Cd2       1.0000    0.37500   0.87500   0.87500   Biso      1.000     Cd          0.7046    
         Cd3       1.0000    0.87500   0.37500   0.87500   Biso      1.000     Cd          0.70509   
         Cd4       1.0000    0.87500   0.87500   0.37500   Biso      1.000     Cd          0.6899430000000001  
         Cd5       1.0000    0.62500   0.62500   0.62500   Biso      1.000     Cd          0.698025  
         Cd6       1.0000    0.12500   0.12500   0.62500   Biso      1.000     Cd          0.696062  
         Cd7       1.0000    0.12500   0.62500   0.12500   Biso      1.000     Cd          0.691002  
         Cd8       1.0000    0.62500   0.12500   0.12500   Biso      1.000     Cd          0.704868 