
##########################################################################
#               Crystallographic Information Format file
#               Produced by PyCifRW module
#
#  This is a CIF file.  CIF has been adopted by the International
#  Union of Crystallography as the standard for data archiving and
#  transmission.
#
#  For information on this file format, follow the CIF links at
#  http://www.iucr.org
##########################################################################

data_image0

_cell_length_a                          8.995
_cell_length_b                          8.995
_cell_length_c                          8.995
_cell_angle_alpha                       60
_cell_angle_beta                        60
_cell_angle_gamma                       60
_symmetry_space_group_name_H-M          'P 1'
_symmetry_int_tables_number             1
loop_
  _symmetry_equiv_pos_as_xyz
         'x, y, z' 
loop_
  _atom_site_label
  _atom_site_occupancy
  _atom_site_fract_x
  _atom_site_fract_y
  _atom_site_fract_z
  _atom_site_thermal_displace_type
  _atom_site_B_iso_or_equiv
  _atom_site_type_symbol
  _atom_site_charge
         C1        1.0000    0.02654   0.92038   0.52654   Biso      1.000     C          -0.202787           
         C2        1.0000    0.42038   0.52654   0.52654   Biso      1.000     C          -0.202532           
         C3        1.0000    0.02654   0.52654   0.52654   Biso      1.000     C          -0.202247           
         C4        1.0000    0.02654   0.52654   0.92038   Biso      1.000     C          -0.2024   
         C5        1.0000    0.57962   0.47346   0.47346   Biso      1.000     C          -0.202261           
         C6        1.0000    0.97346   0.07962   0.47346   Biso      1.000     C          -0.202802           
         C7        1.0000    0.97346   0.47346   0.47346   Biso      1.000     C          -0.20199  
         C8        1.0000    0.97346   0.47346   0.07962   Biso      1.000     C          -0.202429           
         Cd1       1.0000    0.12500   0.62500   0.62500   Biso      1.000     Cd          0.809777  
         Cd2       1.0000    0.87500   0.37500   0.37500   Biso      1.000     Cd          0.809672 