
##########################################################################
#               Crystallographic Information Format file
#               Produced by PyCifRW module
#
#  This is a CIF file.  CIF has been adopted by the International
#  Union of Crystallography as the standard for data archiving and
#  transmission.
#
#  For information on this file format, follow the CIF links at
#  http://www.iucr.org
##########################################################################

data_image0

_cell_length_a                          8.714
_cell_length_b                          10.275
_cell_length_c                          9.325
_cell_angle_alpha                       85.16
_cell_angle_beta                        63.81
_cell_angle_gamma                       72.37
_symmetry_space_group_name_H-M          'P 1'
_symmetry_int_tables_number             1
loop_
  _symmetry_equiv_pos_as_xyz
         'x, y, z' 
loop_
  _atom_site_label
  _atom_site_occupancy
  _atom_site_fract_x
  _atom_site_fract_y
  _atom_site_fract_z
  _atom_site_thermal_displace_type
  _atom_site_B_iso_or_equiv
  _atom_site_type_symbol
  _atom_site_charge
         C1        1.0000    0.56130   0.07980   0.72790   Biso      1.000     C          0.630894  
         C2        1.0000    0.06150   0.46610   0.02300   Biso      1.000     C          -0.159279           
         C3        1.0000    0.43870   0.92020   0.27210   Biso      1.000     C          0.630875  
         C4        1.0000    0.28160   0.91180   0.42250   Biso      1.000     C          -0.165776           
         C5        1.0000    0.28120   0.91600   0.56450   Biso      1.000     C          -0.166678           
         C6        1.0000    0.11810   0.92330   0.71790   Biso      1.000     C          0.630946  
         C7        1.0000    0.87580   0.68830   0.98410   Biso      1.000     C          0.585901  
         C8        1.0000    0.93850   0.53390   0.97700   Biso      1.000     C          -0.15969  
         C9        1.0000    0.12420   0.31170   0.01590   Biso      1.000     C          0.584287  
         C10       1.0000    0.71840   0.08820   0.57750   Biso      1.000     C          -0.165747           
         C11       1.0000    0.71880   0.08400   0.43550   Biso      1.000     C          -0.16664400000000001          
         C12       1.0000    0.88190   0.07670   0.28210   Biso      1.000     C          0.630897  
         Eu1       1.0000    0.75630   0.98090   0.00000   Biso      1.000     Eu          1.3796979999999999  
         Eu2       1.0000    0.24370   0.01910   0.00000   Biso      1.000     Eu          1.3799649999999999  
         H1        1.0000    0.84272   0.09854   0.58225   Biso      1.000     H          0.12983   
         H2        1.0000    0.87863   0.47266   0.93059   Biso      1.000     H          0.13107   
         H3        1.0000    0.40865   0.91407   0.57256   Biso      1.000     H          0.12826700000000002           
         H4        1.0000    0.15728   0.90146   0.41775   Biso      1.000     H          0.129841  
         H5        1.0000    0.12449   0.52379   0.07011   Biso      1.000     H          0.130359  
         H6        1.0000    0.59135   0.08593   0.42744   Biso      1.000     H          0.12825799999999998           
         O1        1.0000    0.75010   0.74670   0.94440   Biso      1.000     O          -0.461757           
         O2        1.0000    0.58300   0.04600   0.85270   Biso      1.000     O          -0.592377           
         O3        1.0000    0.41000   0.10000   0.73000   Biso      1.000     O          -0.502436           
         O4        1.0000    0.88220   0.04240   0.15470   Biso      1.000     O          -0.5937899999999999           
         O5        1.0000    0.01680   0.09840   0.28010   Biso      1.000     O          -0.506043           
         O6        1.0000    0.05230   0.24400   0.97300   Biso      1.000     O          -0.46617299999999995          
         O7        1.0000    0.24990   0.25330   0.05560   Biso      1.000     O          -0.463634           
         O8        1.0000    0.98320   0.90160   0.71990   Biso      1.000     O          -0.506174           
         O9        1.0000    0.11780   0.95760   0.84530   Biso      1.000     O          -0.59382  
         O10       1.0000    0.41700   0.95400   0.14730   Biso      1.000     O          -0.5924189999999999           
         O11       1.0000    0.94770   0.75600   0.02700   Biso      1.000     O          -0.466222           
         O12       1.0000    0.59000   0.90000   0.27000   Biso      1.000     O          -0.502428 