
##########################################################################
#               Crystallographic Information Format file
#               Produced by PyCifRW module
#
#  This is a CIF file.  CIF has been adopted by the International
#  Union of Crystallography as the standard for data archiving and
#  transmission.
#
#  For information on this file format, follow the CIF links at
#  http://www.iucr.org
##########################################################################

data_image0

_cell_length_a                          8.426
_cell_length_b                          9.629
_cell_length_c                          17.159
_cell_angle_alpha                       90
_cell_angle_beta                        90
_cell_angle_gamma                       112.14
_symmetry_space_group_name_H-M          'P 1'
_symmetry_int_tables_number             1
loop_
  _symmetry_equiv_pos_as_xyz
         'x, y, z' 
loop_
  _atom_site_label
  _atom_site_occupancy
  _atom_site_fract_x
  _atom_site_fract_y
  _atom_site_fract_z
  _atom_site_thermal_displace_type
  _atom_site_B_iso_or_equiv
  _atom_site_type_symbol
  _atom_site_charge
         C1        1.0000    0.05340   0.96580   0.98560   Biso      1.000     C          -0.170032           
         C2        1.0000    0.31200   0.45790   0.21730   Biso      1.000     C          -0.173525           
         C3        1.0000    0.37790   0.60310   0.19940   Biso      1.000     C          -0.179307           
         C4        1.0000    0.56340   0.69640   0.21110   Biso      1.000     C          0.695673  
         C5        1.0000    0.94660   0.53420   0.48560   Biso      1.000     C          -0.169856           
         C6        1.0000    0.90670   0.52580   0.40160   Biso      1.000     C          0.616158  
         C7        1.0000    0.87220   0.63570   0.78580   Biso      1.000     C          0.721205  
         C8        1.0000    0.68800   0.04210   0.71730   Biso      1.000     C          -0.17532799999999998          
         C9        1.0000    0.62210   0.89690   0.69940   Biso      1.000     C          -0.181397           
         C10       1.0000    0.43660   0.80360   0.71110   Biso      1.000     C          0.695886  
         C11       1.0000    0.09330   0.97420   0.90160   Biso      1.000     C          0.616083  
         C12       1.0000    0.87220   0.13570   0.71420   Biso      1.000     C          0.724526  
         C13       1.0000    0.12780   0.86430   0.28580   Biso      1.000     C          0.7210979999999999  
         C14       1.0000    0.68800   0.54210   0.78270   Biso      1.000     C          -0.173921           
         C15       1.0000    0.43660   0.30360   0.78890   Biso      1.000     C          0.696146  
         C16       1.0000    0.05340   0.46580   0.51440   Biso      1.000     C          -0.170283           
         C17       1.0000    0.09330   0.47420   0.59840   Biso      1.000     C          0.616009  
         C18       1.0000    0.12780   0.36430   0.21420   Biso      1.000     C          0.721097  
         C19       1.0000    0.31200   0.95790   0.28270   Biso      1.000     C          -0.173534           
         C20       1.0000    0.37790   0.10310   0.30060   Biso      1.000     C          -0.179309           
         C21       1.0000    0.56340   0.19640   0.28890   Biso      1.000     C          0.695673  
         C22       1.0000    0.94660   0.03420   0.01440   Biso      1.000     C          -0.16992100000000002          
         C23       1.0000    0.90670   0.02580   0.09840   Biso      1.000     C          0.615959  
         C24       1.0000    0.62210   0.39690   0.80060   Biso      1.000     C          -0.17865999999999999          
         H1        1.0000    0.71158   0.34404   0.82551   Biso      1.000     H          0.129406  
         H2        1.0000    0.28842   0.65596   0.17449   Biso      1.000     H          0.12919   
         H3        1.0000    0.11004   0.40343   0.47339   Biso      1.000     H          0.13505599999999998           
         H4        1.0000    0.39979   0.89860   0.26354   Biso      1.000     H          0.118697  
         H5        1.0000    0.60021   0.60140   0.76354   Biso      1.000     H          0.11863499999999999           
         H6        1.0000    0.39979   0.39860   0.23646   Biso      1.000     H          0.118699  
         H7        1.0000    0.28842   0.15596   0.32551   Biso      1.000     H          0.129197  
         H8        1.0000    0.71158   0.84404   0.67449   Biso      1.000     H          0.12748299999999999           
         H9        1.0000    0.59217   0.09344   0.73594   Biso      1.000     H          0.118405  
         H10       1.0000    0.89029   0.59643   0.52686   Biso      1.000     H          0.13508699999999998           
         H11       1.0000    0.11004   0.90343   0.02661   Biso      1.000     H          0.135188  
         H12       1.0000    0.88996   0.09657   0.97339   Biso      1.000     H          0.135222  
         Lu1       1.0000    0.84420   0.02560   0.25710   Biso      1.000     Lu          1.730649  
         Lu2       1.0000    0.15580   0.47440   0.75710   Biso      1.000     Lu          1.7303529999999998  
         Lu3       1.0000    0.15580   0.97440   0.74290   Biso      1.000     Lu          1.7304389999999998  
         Lu4       1.0000    0.84420   0.52560   0.24290   Biso      1.000     Lu          1.7306009999999998  
         O1        1.0000    0.39310   0.16450   0.79630   Biso      1.000     O          -0.575026           
         O2        1.0000    0.96570   0.95420   0.14530   Biso      1.000     O          -0.6181939999999999           
         O3        1.0000    0.81350   0.09280   0.12330   Biso      1.000     O          -0.573607           
         O4        1.0000    0.66250   0.13490   0.26960   Biso      1.000     O          -0.623409           
         O5        1.0000    0.02240   0.42390   0.19470   Biso      1.000     O          -0.6493399999999999           
         O6        1.0000    0.08540   0.23010   0.23120   Biso      1.000     O          -0.583919           
         O7        1.0000    0.03430   0.54580   0.64530   Biso      1.000     O          -0.618129           
         O8        1.0000    0.18650   0.40720   0.62330   Biso      1.000     O          -0.573713           
         O9        1.0000    0.08540   0.73010   0.26880   Biso      1.000     O          -0.583923           
         O10       1.0000    0.33750   0.36510   0.76960   Biso      1.000     O          -0.623514           
         O11       1.0000    0.02240   0.92390   0.30530   Biso      1.000     O          -0.649334           
         O12       1.0000    0.66250   0.63490   0.23040   Biso      1.000     O          -0.623394           
         O13       1.0000    0.81350   0.59280   0.37670   Biso      1.000     O          -0.573588           
         O14       1.0000    0.96570   0.45420   0.35470   Biso      1.000     O          -0.618158           
         O15       1.0000    0.91460   0.76990   0.76880   Biso      1.000     O          -0.583905           
         O16       1.0000    0.97760   0.57610   0.80530   Biso      1.000     O          -0.649407           
         O17       1.0000    0.39310   0.66450   0.70370   Biso      1.000     O          -0.574476           
         O18       1.0000    0.33750   0.86510   0.73040   Biso      1.000     O          -0.623238           
         O19       1.0000    0.18650   0.90720   0.87670   Biso      1.000     O          -0.5737359999999999           
         O20       1.0000    0.03430   0.04580   0.85470   Biso      1.000     O          -0.61825  
         O21       1.0000    0.91460   0.26990   0.73120   Biso      1.000     O          -0.5838439999999999           
         O22       1.0000    0.97760   0.07610   0.69470   Biso      1.000     O          -0.64849  
         O23       1.0000    0.60690   0.83550   0.20370   Biso      1.000     O          -0.575086           
         O24       1.0000    0.60690   0.33550   0.29630   Biso      1.000     O          -0.575071 