
##########################################################################
#               Crystallographic Information Format file
#               Produced by PyCifRW module
#
#  This is a CIF file.  CIF has been adopted by the International
#  Union of Crystallography as the standard for data archiving and
#  transmission.
#
#  For information on this file format, follow the CIF links at
#  http://www.iucr.org
##########################################################################

data_image0

_cell_length_a                          8.486
_cell_length_b                          9.737
_cell_length_c                          17.271
_cell_angle_alpha                       90
_cell_angle_beta                        90
_cell_angle_gamma                       112.25
_symmetry_space_group_name_H-M          'P 1'
_symmetry_int_tables_number             1
loop_
  _symmetry_equiv_pos_as_xyz
         'x, y, z' 
loop_
  _atom_site_label
  _atom_site_occupancy
  _atom_site_fract_x
  _atom_site_fract_y
  _atom_site_fract_z
  _atom_site_thermal_displace_type
  _atom_site_B_iso_or_equiv
  _atom_site_type_symbol
  _atom_site_charge
         C1        1.0000    0.87270   0.13330   0.71340   Biso      1.000     C          0.727197  
         C2        1.0000    0.12730   0.36670   0.21340   Biso      1.000     C          0.727275  
         C3        1.0000    0.31320   0.46020   0.21750   Biso      1.000     C          -0.170738           
         C4        1.0000    0.37940   0.10610   0.30100   Biso      1.000     C          -0.184137           
         C5        1.0000    0.56080   0.19820   0.28940   Biso      1.000     C          0.694802  
         C6        1.0000    0.94650   0.52870   0.48540   Biso      1.000     C          -0.162589           
         C7        1.0000    0.90370   0.52500   0.40220   Biso      1.000     C          0.624301  
         C8        1.0000    0.68680   0.03980   0.71750   Biso      1.000     C          -0.170726           
         C9        1.0000    0.62060   0.39390   0.80100   Biso      1.000     C          -0.184159           
         C10       1.0000    0.43920   0.30180   0.78940   Biso      1.000     C          0.694803  
         C11       1.0000    0.05350   0.97130   0.98540   Biso      1.000     C          -0.164022           
         C12       1.0000    0.09630   0.97500   0.90220   Biso      1.000     C          0.627687  
         C13       1.0000    0.87270   0.63330   0.78660   Biso      1.000     C          0.729876  
         C14       1.0000    0.68680   0.53980   0.78250   Biso      1.000     C          -0.16934000000000002          
         C15       1.0000    0.43920   0.80180   0.71060   Biso      1.000     C          0.696477  
         C16       1.0000    0.05350   0.47130   0.51460   Biso      1.000     C          -0.161718           
         C17       1.0000    0.09630   0.47500   0.59780   Biso      1.000     C          0.62745   
         C18       1.0000    0.12730   0.86670   0.28660   Biso      1.000     C          0.7297359999999999  
         C19       1.0000    0.31320   0.96020   0.28250   Biso      1.000     C          -0.169422           
         C20       1.0000    0.37940   0.60610   0.19900   Biso      1.000     C          -0.181672           
         C21       1.0000    0.56080   0.69820   0.21060   Biso      1.000     C          0.696487  
         C22       1.0000    0.94650   0.02870   0.01460   Biso      1.000     C          -0.164113           
         C23       1.0000    0.90370   0.02500   0.09780   Biso      1.000     C          0.627782  
         C24       1.0000    0.62060   0.89390   0.69900   Biso      1.000     C          -0.18176199999999998          
         H1        1.0000    0.29406   0.16124   0.32639   Biso      1.000     H          0.130478  
         H2        1.0000    0.11332   0.41699   0.47131   Biso      1.000     H          0.12226500000000001           
         H3        1.0000    0.40727   0.90908   0.26298   Biso      1.000     H          0.121852  
         H4        1.0000    0.29015   0.65738   0.17374   Biso      1.000     H          0.131676  
         H5        1.0000    0.88668   0.08301   0.97131   Biso      1.000     H          0.120532  
         H6        1.0000    0.70985   0.84262   0.67374   Biso      1.000     H          0.13156500000000002           
         H7        1.0000    0.40055   0.40247   0.23745   Biso      1.000     H          0.121822  
         H8        1.0000    0.11332   0.91699   0.02869   Biso      1.000     H          0.120531  
         H9        1.0000    0.70594   0.33876   0.82639   Biso      1.000     H          0.130529  
         H10       1.0000    0.59945   0.09753   0.73745   Biso      1.000     H          0.121874  
         H11       1.0000    0.88190   0.58479   0.52527   Biso      1.000     H          0.120577  
         H12       1.0000    0.59273   0.59092   0.76298   Biso      1.000     H          0.12181700000000001           
         O1        1.0000    0.91130   0.26700   0.73120   Biso      1.000     O          -0.61797  
         O2        1.0000    0.08870   0.23300   0.23120   Biso      1.000     O          -0.618175           
         O3        1.0000    0.02460   0.42470   0.19520   Biso      1.000     O          -0.658387           
         O4        1.0000    0.60310   0.33780   0.29680   Biso      1.000     O          -0.600703           
         O5        1.0000    0.66370   0.13980   0.27100   Biso      1.000     O          -0.65954  
         O6        1.0000    0.81360   0.59070   0.37850   Biso      1.000     O          -0.575401           
         O7        1.0000    0.96400   0.45390   0.35540   Biso      1.000     O          -0.646366           
         O8        1.0000    0.97540   0.07530   0.69520   Biso      1.000     O          -0.658515           
         O9        1.0000    0.60310   0.83780   0.20320   Biso      1.000     O          -0.601007           
         O10       1.0000    0.33630   0.36020   0.77100   Biso      1.000     O          -0.659593           
         O11       1.0000    0.96400   0.95390   0.14460   Biso      1.000     O          -0.64575  
         O12       1.0000    0.81360   0.09070   0.12150   Biso      1.000     O          -0.575295           
         O13       1.0000    0.66370   0.63980   0.22900   Biso      1.000     O          -0.659473           
         O14       1.0000    0.02460   0.92470   0.30480   Biso      1.000     O          -0.6577729999999999           
         O15       1.0000    0.39690   0.16220   0.79680   Biso      1.000     O          -0.60077  
         O16       1.0000    0.03600   0.54610   0.64460   Biso      1.000     O          -0.645943           
         O17       1.0000    0.08870   0.73300   0.26880   Biso      1.000     O          -0.618175           
         O18       1.0000    0.33630   0.86020   0.72900   Biso      1.000     O          -0.659346           
         O19       1.0000    0.39690   0.66220   0.70320   Biso      1.000     O          -0.601    
         O20       1.0000    0.97540   0.57530   0.80480   Biso      1.000     O          -0.6576069999999999           
         O21       1.0000    0.91130   0.76700   0.76880   Biso      1.000     O          -0.618314           
         O22       1.0000    0.03600   0.04610   0.85540   Biso      1.000     O          -0.6456189999999999           
         O23       1.0000    0.18640   0.90930   0.87850   Biso      1.000     O          -0.575314           
         O24       1.0000    0.18640   0.40930   0.62150   Biso      1.000     O          -0.575824           
         Y1        1.0000    0.84400   0.52450   0.24250   Biso      1.000     Y          1.8494419999999998  
         Y2        1.0000    0.15600   0.97550   0.74250   Biso      1.000     Y          1.849343  
         Y3        1.0000    0.15600   0.47550   0.75750   Biso      1.000     Y          1.8490400000000002  
         Y4        1.0000    0.84400   0.02450   0.25750   Biso      1.000     Y          1.849041 