
##########################################################################
#               Crystallographic Information Format file
#               Produced by PyCifRW module
#
#  This is a CIF file.  CIF has been adopted by the International
#  Union of Crystallography as the standard for data archiving and
#  transmission.
#
#  For information on this file format, follow the CIF links at
#  http://www.iucr.org
##########################################################################

data_image0

_cell_length_a                          8.523
_cell_length_b                          9.764
_cell_length_c                          17.314
_cell_angle_alpha                       90
_cell_angle_beta                        90
_cell_angle_gamma                       112.25
_symmetry_space_group_name_H-M          'P 1'
_symmetry_int_tables_number             1
loop_
  _symmetry_equiv_pos_as_xyz
         'x, y, z' 
loop_
  _atom_site_label
  _atom_site_occupancy
  _atom_site_fract_x
  _atom_site_fract_y
  _atom_site_fract_z
  _atom_site_thermal_displace_type
  _atom_site_B_iso_or_equiv
  _atom_site_type_symbol
  _atom_site_charge
         C1        1.0000    0.87030   0.13170   0.71350   Biso      1.000     C          0.746711  
         C2        1.0000    0.12970   0.36830   0.21350   Biso      1.000     C          0.746727  
         C3        1.0000    0.31340   0.46220   0.21680   Biso      1.000     C          -0.168516           
         C4        1.0000    0.37440   0.60540   0.19820   Biso      1.000     C          -0.164429           
         C5        1.0000    0.55770   0.70180   0.21030   Biso      1.000     C          0.7127939999999999  
         C6        1.0000    0.94630   0.52790   0.48690   Biso      1.000     C          -0.160922           
         C7        1.0000    0.90590   0.52290   0.40250   Biso      1.000     C          0.630637  
         C8        1.0000    0.68660   0.03780   0.71680   Biso      1.000     C          -0.168512           
         C9        1.0000    0.62560   0.89460   0.69820   Biso      1.000     C          -0.164449           
         C10       1.0000    0.44230   0.79820   0.71030   Biso      1.000     C          0.7127899999999999  
         C11       1.0000    0.05370   0.97210   0.98690   Biso      1.000     C          -0.16107  
         C12       1.0000    0.09410   0.97710   0.90250   Biso      1.000     C          0.6313380000000001  
         C13       1.0000    0.87030   0.63170   0.78650   Biso      1.000     C          0.746744  
         C14       1.0000    0.68660   0.53780   0.78320   Biso      1.000     C          -0.168499           
         C15       1.0000    0.44230   0.29820   0.78970   Biso      1.000     C          0.712793  
         C16       1.0000    0.05370   0.47210   0.51310   Biso      1.000     C          -0.160546           
         C17       1.0000    0.09410   0.47710   0.59750   Biso      1.000     C          0.631308  
         C18       1.0000    0.12970   0.86830   0.28650   Biso      1.000     C          0.746714  
         C19       1.0000    0.31340   0.96220   0.28320   Biso      1.000     C          -0.168514           
         C20       1.0000    0.37440   0.10540   0.30180   Biso      1.000     C          -0.164434           
         C21       1.0000    0.55770   0.20180   0.28970   Biso      1.000     C          0.712793  
         C22       1.0000    0.94630   0.02790   0.01310   Biso      1.000     C          -0.161051           
         C23       1.0000    0.90590   0.02290   0.09750   Biso      1.000     C          0.6313409999999999  
         C24       1.0000    0.62560   0.39460   0.80180   Biso      1.000     C          -0.164437           
         H1        1.0000    0.28387   0.65433   0.17257   Biso      1.000     H          0.131657  
         H2        1.0000    0.11663   0.41930   0.47079   Biso      1.000     H          0.129666  
         H3        1.0000    0.40333   0.90722   0.26384   Biso      1.000     H          0.125623  
         H4        1.0000    0.28387   0.15433   0.32743   Biso      1.000     H          0.131639  
         H5        1.0000    0.88337   0.08070   0.97079   Biso      1.000     H          0.129322  
         H6        1.0000    0.71613   0.34567   0.82743   Biso      1.000     H          0.131649  
         H7        1.0000    0.40333   0.40722   0.23616   Biso      1.000     H          0.125617  
         H8        1.0000    0.11663   0.91930   0.02921   Biso      1.000     H          0.12931600000000001           
         H9        1.0000    0.71613   0.84567   0.67257   Biso      1.000     H          0.131632  
         H10       1.0000    0.59667   0.09278   0.73616   Biso      1.000     H          0.125627  
         H11       1.0000    0.88236   0.58106   0.52851   Biso      1.000     H          0.129469  
         H12       1.0000    0.59667   0.59278   0.76384   Biso      1.000     H          0.125616  
         O1        1.0000    0.91020   0.26510   0.73050   Biso      1.000     O          -0.66081  
         O2        1.0000    0.08980   0.23490   0.23050   Biso      1.000     O          -0.660856           
         O3        1.0000    0.02350   0.42380   0.19480   Biso      1.000     O          -0.74028  
         O4        1.0000    0.59850   0.83930   0.20330   Biso      1.000     O          -0.637103           
         O5        1.0000    0.66110   0.64520   0.22970   Biso      1.000     O          -0.743196           
         O6        1.0000    0.81370   0.59190   0.37960   Biso      1.000     O          -0.621595           
         O7        1.0000    0.96440   0.45610   0.35590   Biso      1.000     O          -0.653683           
         O8        1.0000    0.97650   0.07620   0.69480   Biso      1.000     O          -0.74031  
         O9        1.0000    0.59850   0.33930   0.29670   Biso      1.000     O          -0.6371   
         O10       1.0000    0.33890   0.85480   0.72970   Biso      1.000     O          -0.743166           
         O11       1.0000    0.96440   0.95610   0.14410   Biso      1.000     O          -0.6535380000000001           
         O12       1.0000    0.81370   0.09190   0.12040   Biso      1.000     O          -0.621546           
         O13       1.0000    0.66110   0.14520   0.27030   Biso      1.000     O          -0.743175           
         O14       1.0000    0.02350   0.92380   0.30520   Biso      1.000     O          -0.740313           
         O15       1.0000    0.40150   0.66070   0.70330   Biso      1.000     O          -0.637101           
         O16       1.0000    0.03560   0.54390   0.64410   Biso      1.000     O          -0.653573           
         O17       1.0000    0.08980   0.73490   0.26950   Biso      1.000     O          -0.660816           
         O18       1.0000    0.33890   0.35480   0.77030   Biso      1.000     O          -0.743185           
         O19       1.0000    0.40150   0.16070   0.79670   Biso      1.000     O          -0.637115           
         O20       1.0000    0.97650   0.57620   0.80520   Biso      1.000     O          -0.740275           
         O21       1.0000    0.91020   0.76510   0.76950   Biso      1.000     O          -0.660849           
         O22       1.0000    0.03560   0.04390   0.85590   Biso      1.000     O          -0.653532           
         O23       1.0000    0.18630   0.90810   0.87960   Biso      1.000     O          -0.6215470000000001           
         O24       1.0000    0.18630   0.40810   0.62040   Biso      1.000     O          -0.6216729999999999           
         Tb1       1.0000    0.84310   0.52600   0.24230   Biso      1.000     Tb          2.073079  
         Tb2       1.0000    0.15690   0.97400   0.74230   Biso      1.000     Tb          2.073057  
         Tb3       1.0000    0.15690   0.47400   0.75770   Biso      1.000     Tb          2.073022  
         Tb4       1.0000    0.84310   0.02600   0.25770   Biso      1.000     Tb          2.0730310000000003 