
##########################################################################
#               Crystallographic Information Format file
#               Produced by PyCifRW module
#
#  This is a CIF file.  CIF has been adopted by the International
#  Union of Crystallography as the standard for data archiving and
#  transmission.
#
#  For information on this file format, follow the CIF links at
#  http://www.iucr.org
##########################################################################

data_image0

_cell_length_a                          8.478
_cell_length_b                          9.695
_cell_length_c                          17.243
_cell_angle_alpha                       90
_cell_angle_beta                        90
_cell_angle_gamma                       112.28
_symmetry_space_group_name_H-M          'P 1'
_symmetry_int_tables_number             1
loop_
  _symmetry_equiv_pos_as_xyz
         'x, y, z' 
loop_
  _atom_site_label
  _atom_site_occupancy
  _atom_site_fract_x
  _atom_site_fract_y
  _atom_site_fract_z
  _atom_site_thermal_displace_type
  _atom_site_B_iso_or_equiv
  _atom_site_type_symbol
  _atom_site_charge
         C1        1.0000    0.43750   0.80060   0.71140   Biso      1.000     C          0.712855  
         C2        1.0000    0.87120   0.63300   0.78670   Biso      1.000     C          0.752642  
         C3        1.0000    0.68770   0.03940   0.71690   Biso      1.000     C          -0.167315           
         C4        1.0000    0.62330   0.89690   0.69890   Biso      1.000     C          -0.160673           
         C5        1.0000    0.56250   0.69940   0.21140   Biso      1.000     C          0.712722  
         C6        1.0000    0.05430   0.96990   0.98550   Biso      1.000     C          -0.162873           
         C7        1.0000    0.09560   0.97570   0.90210   Biso      1.000     C          0.641547  
         C8        1.0000    0.87120   0.13300   0.71330   Biso      1.000     C          0.755612  
         C9        1.0000    0.68770   0.53940   0.78310   Biso      1.000     C          -0.166491           
         C10       1.0000    0.62330   0.39690   0.80110   Biso      1.000     C          -0.157995           
         C11       1.0000    0.43750   0.30060   0.78860   Biso      1.000     C          0.713146  
         C12       1.0000    0.05430   0.46990   0.51450   Biso      1.000     C          -0.161791           
         C13       1.0000    0.09560   0.47570   0.59790   Biso      1.000     C          0.641329  
         C14       1.0000    0.12880   0.36700   0.21330   Biso      1.000     C          0.752488  
         C15       1.0000    0.31230   0.96060   0.28310   Biso      1.000     C          -0.166187           
         C16       1.0000    0.37670   0.10310   0.30110   Biso      1.000     C          -0.158629           
         C17       1.0000    0.56250   0.19940   0.28860   Biso      1.000     C          0.712721  
         C18       1.0000    0.94570   0.03010   0.01450   Biso      1.000     C          -0.162845           
         C19       1.0000    0.90440   0.02430   0.09790   Biso      1.000     C          0.641455  
         C20       1.0000    0.37670   0.60310   0.19890   Biso      1.000     C          -0.158656           
         C21       1.0000    0.31230   0.46060   0.21690   Biso      1.000     C          -0.166145           
         C22       1.0000    0.12880   0.86700   0.28670   Biso      1.000     C          0.752454  
         C23       1.0000    0.90440   0.52430   0.40210   Biso      1.000     C          0.639396  
         C24       1.0000    0.94570   0.53010   0.48550   Biso      1.000     C          -0.161688           
         Er1       1.0000    0.84330   0.02350   0.25740   Biso      1.000     Er          2.077518  
         Er2       1.0000    0.84330   0.52350   0.24260   Biso      1.000     Er          2.077612  
         Er3       1.0000    0.15670   0.97650   0.74260   Biso      1.000     Er          2.077228  
         Er4       1.0000    0.15670   0.47650   0.75740   Biso      1.000     Er          2.07727   
         H1        1.0000    0.88320   0.58741   0.52597   Biso      1.000     H          0.12869   
         H2        1.0000    0.59267   0.08999   0.73617   Biso      1.000     H          0.121717  
         H3        1.0000    0.71309   0.84649   0.67302   Biso      1.000     H          0.130215  
         H4        1.0000    0.11419   0.91357   0.02785   Biso      1.000     H          0.128704  
         H5        1.0000    0.60017   0.59742   0.76335   Biso      1.000     H          0.122576  
         H6        1.0000    0.71309   0.34649   0.82698   Biso      1.000     H          0.132108  
         H7        1.0000    0.11419   0.41357   0.47215   Biso      1.000     H          0.129589  
         H8        1.0000    0.39983   0.90258   0.26335   Biso      1.000     H          0.122656  
         H9        1.0000    0.28691   0.15351   0.32698   Biso      1.000     H          0.131867  
         H10       1.0000    0.88581   0.08643   0.97215   Biso      1.000     H          0.128764  
         H11       1.0000    0.39983   0.40258   0.23665   Biso      1.000     H          0.122634  
         H12       1.0000    0.28691   0.65351   0.17302   Biso      1.000     H          0.131917  
         O1        1.0000    0.91740   0.26860   0.73160   Biso      1.000     O          -0.67542  
         O2        1.0000    0.96310   0.95450   0.14510   Biso      1.000     O          -0.680641           
         O3        1.0000    0.81400   0.09070   0.12170   Biso      1.000     O          -0.606895           
         O4        1.0000    0.66440   0.13740   0.26990   Biso      1.000     O          -0.751949           
         O5        1.0000    0.02460   0.42440   0.19240   Biso      1.000     O          -0.739045           
         O6        1.0000    0.08260   0.23140   0.23160   Biso      1.000     O          -0.675688           
         O7        1.0000    0.03690   0.54550   0.64510   Biso      1.000     O          -0.680652           
         O8        1.0000    0.18600   0.40930   0.62170   Biso      1.000     O          -0.607336           
         O9        1.0000    0.33560   0.36260   0.76990   Biso      1.000     O          -0.75212  
         O10       1.0000    0.39800   0.16310   0.79650   Biso      1.000     O          -0.625374           
         O11       1.0000    0.97540   0.07560   0.69240   Biso      1.000     O          -0.738241           
         O12       1.0000    0.08260   0.73140   0.26840   Biso      1.000     O          -0.675568           
         O13       1.0000    0.60200   0.83690   0.20350   Biso      1.000     O          -0.625547           
         O14       1.0000    0.66440   0.63740   0.23010   Biso      1.000     O          -0.751994           
         O15       1.0000    0.81400   0.59070   0.37830   Biso      1.000     O          -0.606969           
         O16       1.0000    0.96310   0.45450   0.35490   Biso      1.000     O          -0.681019           
         O17       1.0000    0.91740   0.76860   0.76840   Biso      1.000     O          -0.675642           
         O18       1.0000    0.97540   0.57560   0.80760   Biso      1.000     O          -0.739119           
         O19       1.0000    0.39800   0.66310   0.70350   Biso      1.000     O          -0.624985           
         O20       1.0000    0.33560   0.86260   0.73010   Biso      1.000     O          -0.751577           
         O21       1.0000    0.18600   0.90930   0.87830   Biso      1.000     O          -0.607029           
         O22       1.0000    0.03690   0.04550   0.85490   Biso      1.000     O          -0.680669           
         O23       1.0000    0.02460   0.92440   0.30760   Biso      1.000     O          -0.739149           
         O24       1.0000    0.60200   0.33690   0.29650   Biso      1.000     O          -0.625518 