
##########################################################################
#               Crystallographic Information Format file
#               Produced by PyCifRW module
#
#  This is a CIF file.  CIF has been adopted by the International
#  Union of Crystallography as the standard for data archiving and
#  transmission.
#
#  For information on this file format, follow the CIF links at
#  http://www.iucr.org
##########################################################################

data_image0

_cell_length_a                          13.014
_cell_length_b                          14.394
_cell_length_c                          16.306
_cell_angle_alpha                       90
_cell_angle_beta                        90
_cell_angle_gamma                       90
_symmetry_space_group_name_H-M          'P 1'
_symmetry_int_tables_number             1
loop_
  _symmetry_equiv_pos_as_xyz
         'x, y, z' 
loop_
  _atom_site_label
  _atom_site_occupancy
  _atom_site_fract_x
  _atom_site_fract_y
  _atom_site_fract_z
  _atom_site_thermal_displace_type
  _atom_site_B_iso_or_equiv
  _atom_site_type_symbol
  _atom_site_charge
         C1        1.0000    0.74970   0.14540   0.50070   Biso      1.000     C          0.599047  
         C2        1.0000    0.50260   0.80780   0.54970   Biso      1.000     C          -0.538024           
         C3        1.0000    0.89860   0.09040   0.86250   Biso      1.000     C          0.212026  
         C4        1.0000    0.58890   0.96570   0.74510   Biso      1.000     C          0.590516  
         C5        1.0000    0.86450   0.07200   0.77560   Biso      1.000     C          -0.522698           
         C6        1.0000    0.45530   0.36160   0.01820   Biso      1.000     C          0.225509  
         C7        1.0000    0.06290   0.62300   0.97920   Biso      1.000     C          -0.488045           
         C8        1.0000    0.56290   0.87700   0.02080   Biso      1.000     C          -0.488041           
         C9        1.0000    0.36450   0.42800   0.22440   Biso      1.000     C          -0.5227   
         C10       1.0000    0.93190   0.34370   0.33170   Biso      1.000     C          0.361059  
         C11       1.0000    0.85220   0.19470   0.50850   Biso      1.000     C          0.070717  
         C12       1.0000    0.93710   0.12300   0.52080   Biso      1.000     C          -0.488044           
         C13       1.0000    0.07220   0.81610   0.07820   Biso      1.000     C          0.355378  
         C14       1.0000    0.08890   0.53430   0.25490   Biso      1.000     C          0.590515  
         C15       1.0000    0.93680   0.16700   0.90120   Biso      1.000     C          -0.141192           
         C16       1.0000    0.05640   0.28940   0.83680   Biso      1.000     C          -0.145487           
         C17       1.0000    0.56320   0.83300   0.40120   Biso      1.000     C          -0.141199           
         C18       1.0000    0.64780   0.80530   0.00850   Biso      1.000     C          0.070711  
         C19       1.0000    0.56980   0.11630   0.82080   Biso      1.000     C          -0.487813           
         C20       1.0000    0.09260   0.27520   0.75500   Biso      1.000     C          0.220339  
         C21       1.0000    0.14780   0.69470   0.99150   Biso      1.000     C          0.070713  
         C22       1.0000    0.43710   0.37700   0.47920   Biso      1.000     C          -0.488045           
         C23       1.0000    0.06320   0.66700   0.59880   Biso      1.000     C          -0.14121  
         C24       1.0000    0.03850   0.23540   0.68270   Biso      1.000     C          -0.531527           
         C25       1.0000    0.44360   0.71060   0.33680   Biso      1.000     C          -0.145489           
         C26       1.0000    0.48160   0.54880   0.74020   Biso      1.000     C          0.068655  
         C27       1.0000    0.60140   0.90960   0.36250   Biso      1.000     C          0.212032  
         C28       1.0000    0.24970   0.35460   0.49930   Biso      1.000     C          0.599038  
         C29       1.0000    0.04970   0.76440   0.63190   Biso      1.000     C          -0.202271           
         C30       1.0000    0.85130   0.86990   0.53750   Biso      1.000     C          -0.523417           
         C31       1.0000    0.64870   0.13010   0.03750   Biso      1.000     C          -0.523418           
         C32       1.0000    0.10140   0.59040   0.63750   Biso      1.000     C          0.212024  
         C33       1.0000    0.40740   0.72480   0.25500   Biso      1.000     C          0.220335  
         C34       1.0000    0.99740   0.19220   0.04970   Biso      1.000     C          -0.538019           
         C35       1.0000    0.86380   0.83280   0.62400   Biso      1.000     C          0.217536  
         C36       1.0000    0.95530   0.13840   0.98180   Biso      1.000     C          0.225514  
         C37       1.0000    0.39860   0.40960   0.13750   Biso      1.000     C          0.212028  
         C38       1.0000    0.90740   0.77520   0.74500   Biso      1.000     C          0.220335  
         C39       1.0000    0.49740   0.30780   0.95030   Biso      1.000     C          -0.538021           
         C40       1.0000    0.93020   0.88370   0.32080   Biso      1.000     C          -0.487812           
         C41       1.0000    0.06810   0.84370   0.16830   Biso      1.000     C          0.361075  
         C42       1.0000    0.45030   0.23560   0.13190   Biso      1.000     C          -0.202269           
         C43       1.0000    0.91110   0.03430   0.24510   Biso      1.000     C          0.590514  
         C44       1.0000    0.96150   0.73540   0.81730   Biso      1.000     C          -0.531531           
         C45       1.0000    0.36380   0.66720   0.37600   Biso      1.000     C          0.217545  
         C46       1.0000    0.04470   0.63840   0.51820   Biso      1.000     C          0.225508  
         C47       1.0000    0.00260   0.69220   0.45030   Biso      1.000     C          -0.538023           
         C48       1.0000    0.46150   0.76460   0.18270   Biso      1.000     C          -0.531532           
         C49       1.0000    0.14870   0.36990   0.96250   Biso      1.000     C          -0.523419           
         C50       1.0000    0.25030   0.64540   0.99930   Biso      1.000     C          0.599044  
         C51       1.0000    0.43190   0.15630   0.66830   Biso      1.000     C          0.361073  
         C52       1.0000    0.63620   0.16720   0.12400   Biso      1.000     C          0.217529  
         C53       1.0000    0.75030   0.85460   0.00070   Biso      1.000     C          0.599045  
         C54       1.0000    0.55640   0.21060   0.16320   Biso      1.000     C          -0.14549  
         C55       1.0000    0.01840   0.45120   0.24020   Biso      1.000     C          0.068662  
         C56       1.0000    0.43680   0.33300   0.09880   Biso      1.000     C          -0.141192           
         C57       1.0000    0.43020   0.61630   0.67920   Biso      1.000     C          -0.487811           
         C58       1.0000    0.98160   0.95120   0.25980   Biso      1.000     C          0.068649  
         C59       1.0000    0.54970   0.73560   0.36810   Biso      1.000     C          -0.202272           
         C60       1.0000    0.35130   0.63010   0.46250   Biso      1.000     C          -0.52342  
         C61       1.0000    0.06980   0.38370   0.17920   Biso      1.000     C          -0.487814           
         C62       1.0000    0.53850   0.26460   0.31730   Biso      1.000     C          -0.531528           
         C63       1.0000    0.92780   0.31610   0.42180   Biso      1.000     C          0.355364  
         C64       1.0000    0.51840   0.04880   0.75980   Biso      1.000     C          0.068653  
         C65       1.0000    0.63550   0.92800   0.27560   Biso      1.000     C          -0.522698           
         C66       1.0000    0.41110   0.46570   0.75490   Biso      1.000     C          0.590516  
         C67       1.0000    0.35220   0.30530   0.49150   Biso      1.000     C          0.070713  
         C68       1.0000    0.59260   0.22480   0.24500   Biso      1.000     C          0.220329  
         C69       1.0000    0.13620   0.33280   0.87600   Biso      1.000     C          0.217541  
         C70       1.0000    0.56810   0.65630   0.83170   Biso      1.000     C          0.361069  
         C71       1.0000    0.54470   0.86160   0.48180   Biso      1.000     C          0.225514  
         C72       1.0000    0.94360   0.78940   0.66320   Biso      1.000     C          -0.14548  
         C73       1.0000    0.95030   0.26440   0.86810   Biso      1.000     C          -0.202275           
         C74       1.0000    0.13550   0.57200   0.72440   Biso      1.000     C          -0.522702           
         C75       1.0000    0.57220   0.68390   0.92180   Biso      1.000     C          0.35537   
         C76       1.0000    0.42780   0.18390   0.57820   Biso      1.000     C          0.355376  
         Cu1       1.0000    0.20982   0.70564   0.16047   Biso      1.000     Cu          0.732707  
         Cu2       1.0000    0.93993   0.96299   0.08586   Biso      1.000     Cu          0.714473  
         Cu3       1.0000    0.79018   0.20564   0.33953   Biso      1.000     Cu          0.732643  
         Cu4       1.0000    0.29018   0.29436   0.66047   Biso      1.000     Cu          0.732701  
         Cu5       1.0000    0.56007   0.03701   0.58586   Biso      1.000     Cu          0.71447   
         Cu6       1.0000    0.70982   0.79436   0.83953   Biso      1.000     Cu          0.732663  
         Cu7       1.0000    0.06007   0.46299   0.41414   Biso      1.000     Cu          0.714441  
         Cu8       1.0000    0.43993   0.53701   0.91414   Biso      1.000     Cu          0.714442  
         H1        1.0000    0.91640   0.73590   0.86380   Biso      1.000     H          0.170456  
         H2        1.0000    0.50060   0.34600   0.90210   Biso      1.000     H          0.172314  
         H3        1.0000    0.27270   0.36470   0.83460   Biso      1.000     H          0.290262  
         H4        1.0000    0.72730   0.86470   0.66540   Biso      1.000     H          0.29026   
         H5        1.0000    0.06120   0.58160   0.02540   Biso      1.000     H          0.159722  
         H6        1.0000    0.90180   0.91720   0.52760   Biso      1.000     H          0.174099  
         H7        1.0000    0.52140   0.72800   0.17080   Biso      1.000     H          0.177613  
         H8        1.0000    0.47860   0.22800   0.32920   Biso      1.000     H          0.177608  
         H9        1.0000    0.45330   0.02690   0.78310   Biso      1.000     H          0.09181   
         H10       1.0000    0.09830   0.77320   0.67630   Biso      1.000     H          0.125555  
         H11       1.0000    0.01820   0.17270   0.69450   Biso      1.000     H          0.165628  
         H12       1.0000    0.30880   0.38710   0.23810   Biso      1.000     H          0.175671  
         H13       1.0000    0.41730   0.58470   0.62840   Biso      1.000     H          0.15679   
         H14       1.0000    0.52520   0.16830   0.83050   Biso      1.000     H          0.162702  
         H15       1.0000    0.34200   0.49130   0.22930   Biso      1.000     H          0.180733  
         H16       1.0000    0.06780   0.80780   0.58880   Biso      1.000     H          0.123805  
         H17       1.0000    0.54670   0.52690   0.71690   Biso      1.000     H          0.091819  
         H18       1.0000    0.49940   0.84600   0.59790   Biso      1.000     H          0.172316  
         H19       1.0000    0.92390   0.08810   0.56990   Biso      1.000     H          0.15223   
         H20       1.0000    0.36640   0.63800   0.70170   Biso      1.000     H          0.155925  
         H21       1.0000    0.08270   0.41530   0.12840   Biso      1.000     H          0.156769  
         H22       1.0000    0.98180   0.67270   0.80550   Biso      1.000     H          0.165633  
         H23       1.0000    0.58270   0.08470   0.87160   Biso      1.000     H          0.156786  
         H24       1.0000    0.91730   0.91530   0.37160   Biso      1.000     H          0.156791  
         H25       1.0000    0.54580   0.75510   0.56010   Biso      1.000     H          0.174051  
         H26       1.0000    0.92080   0.08270   0.73880   Biso      1.000     H          0.167285  
         H27       1.0000    0.40180   0.58280   0.47240   Biso      1.000     H          0.174099  
         H28       1.0000    0.43220   0.19220   0.08880   Biso      1.000     H          0.123801  
         H29       1.0000    0.56780   0.69220   0.41120   Biso      1.000     H          0.123815  
         H30       1.0000    0.99790   0.65410   0.97440   Biso      1.000     H          0.164716  
         H31       1.0000    0.87750   0.96430   0.90730   Biso      1.000     H          0.294984  
         H32       1.0000    0.04580   0.74490   0.43990   Biso      1.000     H          0.174042  
         H33       1.0000    0.43880   0.41840   0.52540   Biso      1.000     H          0.159714  
         H34       1.0000    0.00210   0.15410   0.52560   Biso      1.000     H          0.164702  
         H35       1.0000    0.42080   0.41730   0.26120   Biso      1.000     H          0.167282  
         H36       1.0000    0.22730   0.63530   0.33460   Biso      1.000     H          0.290263  
         H37       1.0000    0.90170   0.27320   0.82370   Biso      1.000     H          0.12557   
         H38       1.0000    0.15800   0.50870   0.72930   Biso      1.000     H          0.180731  
         H39       1.0000    0.07610   0.58810   0.93010   Biso      1.000     H          0.152245  
         H40       1.0000    0.40170   0.22680   0.17630   Biso      1.000     H          0.125559  
         H41       1.0000    0.86040   0.82020   0.49890   Biso      1.000     H          0.166001  
         H42       1.0000    0.21620   0.39580   0.96870   Biso      1.000     H          0.182594  
         H43       1.0000    0.50210   0.34590   0.47440   Biso      1.000     H          0.164713  
         H44       1.0000    0.41640   0.76410   0.13620   Biso      1.000     H          0.170455  
         H45       1.0000    0.28380   0.60420   0.46870   Biso      1.000     H          0.182598  
         H46       1.0000    0.12250   0.46430   0.59270   Biso      1.000     H          0.294982  
         H47       1.0000    0.69120   0.88710   0.26190   Biso      1.000     H          0.17567   
         H48       1.0000    0.77270   0.13530   0.16540   Biso      1.000     H          0.290259  
         H49       1.0000    0.71620   0.10420   0.03130   Biso      1.000     H          0.182589  
         H50       1.0000    0.42390   0.41190   0.43010   Biso      1.000     H          0.152245  
         H51       1.0000    0.93220   0.30780   0.91120   Biso      1.000     H          0.123816  
         H52       1.0000    0.35070   0.26150   0.44550   Biso      1.000     H          0.086405  
         H53       1.0000    0.49790   0.84590   0.02560   Biso      1.000     H          0.164709  
         H54       1.0000    0.78380   0.89580   0.53130   Biso      1.000     H          0.182592  
         H55       1.0000    0.14930   0.73850   0.94550   Biso      1.000     H          0.086403  
         H56       1.0000    0.04670   0.97310   0.28310   Biso      1.000     H          0.091821  
         H57       1.0000    0.85070   0.23850   0.55450   Biso      1.000     H          0.086388  
         H58       1.0000    0.95420   0.24490   0.06010   Biso      1.000     H          0.174053  
         H59       1.0000    0.06530   0.21310   0.03580   Biso      1.000     H          0.167471  
         H60       1.0000    0.97480   0.83170   0.33050   Biso      1.000     H          0.162706  
         H61       1.0000    0.80880   0.11290   0.76190   Biso      1.000     H          0.17567   
         H62       1.0000    0.13960   0.32020   0.00110   Biso      1.000     H          0.166003  
         H63       1.0000    0.48180   0.82730   0.19450   Biso      1.000     H          0.16563   
         H64       1.0000    0.99940   0.65400   0.40210   Biso      1.000     H          0.172313  
         H65       1.0000    0.00060   0.15400   0.09790   Biso      1.000     H          0.172319  
         H66       1.0000    0.37750   0.53570   0.09270   Biso      1.000     H          0.294986  
         H67       1.0000    0.56120   0.91840   0.97460   Biso      1.000     H          0.159714  
         H68       1.0000    0.93470   0.71310   0.46420   Biso      1.000     H          0.167463  
         H69       1.0000    0.51820   0.32730   0.30550   Biso      1.000     H          0.165625  
         H70       1.0000    0.86640   0.86200   0.29830   Biso      1.000     H          0.15593   
         H71       1.0000    0.09820   0.41720   0.97240   Biso      1.000     H          0.1741    
         H72       1.0000    0.56530   0.28690   0.96420   Biso      1.000     H          0.167471  
         H73       1.0000    0.93880   0.08160   0.47460   Biso      1.000     H          0.159707  
         H74       1.0000    0.08360   0.23590   0.63620   Biso      1.000     H          0.170458  
         H75       1.0000    0.47480   0.66830   0.66950   Biso      1.000     H          0.162702  
         H76       1.0000    0.02520   0.33170   0.16950   Biso      1.000     H          0.16269   
         H77       1.0000    0.36040   0.67980   0.50110   Biso      1.000     H          0.165999  
         H78       1.0000    0.45420   0.25510   0.93990   Biso      1.000     H          0.174048  
         H79       1.0000    0.07920   0.58270   0.76120   Biso      1.000     H          0.167279  
         H80       1.0000    0.84200   0.00870   0.77070   Biso      1.000     H          0.180735  
         H81       1.0000    0.64930   0.76150   0.05450   Biso      1.000     H          0.086406  
         H82       1.0000    0.57920   0.91730   0.23880   Biso      1.000     H          0.167282  
         H83       1.0000    0.63360   0.13800   0.79830   Biso      1.000     H          0.155927  
         H84       1.0000    0.59830   0.72680   0.32370   Biso      1.000     H          0.125568  
         H85       1.0000    0.13360   0.36200   0.20170   Biso      1.000     H          0.155908  
         H86       1.0000    0.59820   0.08280   0.02760   Biso      1.000     H          0.174091  
         H87       1.0000    0.43470   0.78690   0.53580   Biso      1.000     H          0.167473  
         H88       1.0000    0.02140   0.77200   0.82920   Biso      1.000     H          0.177613  
         H89       1.0000    0.57610   0.91190   0.06990   Biso      1.000     H          0.152243  
         H90       1.0000    0.58360   0.26410   0.36380   Biso      1.000     H          0.170458  
         H91       1.0000    0.97860   0.27200   0.67080   Biso      1.000     H          0.177613  
         H92       1.0000    0.65800   0.99130   0.27070   Biso      1.000     H          0.18074   
         H93       1.0000    0.63960   0.17980   0.99890   Biso      1.000     H          0.165997  
         H94       1.0000    0.95330   0.47310   0.21690   Biso      1.000     H          0.091784  
         H95       1.0000    0.62250   0.03570   0.40730   Biso      1.000     H          0.294988  
         H96       1.0000    0.19120   0.61290   0.73810   Biso      1.000     H          0.175661  
         N1        1.0000    0.18840   0.30740   0.74830   Biso      1.000     N          -0.23774  
         N2        1.0000    0.86940   0.24380   0.43190   Biso      1.000     N          -0.409496           
         N3        1.0000    0.89710   0.02020   0.91780   Biso      1.000     N          -0.171566           
         N4        1.0000    0.00110   0.90860   0.18080   Biso      1.000     N          -0.418584           
         N5        1.0000    0.49890   0.09140   0.68080   Biso      1.000     N          -0.418581           
         N6        1.0000    0.81160   0.80740   0.75170   Biso      1.000     N          -0.237737           
         N7        1.0000    0.63060   0.75620   0.93190   Biso      1.000     N          -0.40948  
         N8        1.0000    0.10290   0.52020   0.58220   Biso      1.000     N          -0.171573           
         N9        1.0000    0.78620   0.84100   0.67720   Biso      1.000     N          -0.175989           
         N10       1.0000    0.36940   0.25620   0.56810   Biso      1.000     N          -0.409495           
         N11       1.0000    0.28620   0.65900   0.32280   Biso      1.000     N          -0.175998           
         N12       1.0000    0.71380   0.15900   0.17720   Biso      1.000     N          -0.176007           
         N13       1.0000    0.99890   0.40860   0.31920   Biso      1.000     N          -0.418587           
         N14       1.0000    0.07000   0.54950   0.50920   Biso      1.000     N          -0.241563           
         N15       1.0000    0.31160   0.69260   0.24830   Biso      1.000     N          -0.237721           
         N16       1.0000    0.68840   0.19260   0.25170   Biso      1.000     N          -0.237708           
         N17       1.0000    0.21380   0.34100   0.82280   Biso      1.000     N          -0.17599  
         N18       1.0000    0.60290   0.97980   0.41780   Biso      1.000     N          -0.17156  
         N19       1.0000    0.39710   0.47980   0.08220   Biso      1.000     N          -0.171568           
         N20       1.0000    0.43000   0.45050   0.00920   Biso      1.000     N          -0.241567           
         N21       1.0000    0.13060   0.74380   0.06810   Biso      1.000     N          -0.409493           
         N22       1.0000    0.57000   0.95050   0.49080   Biso      1.000     N          -0.241564           
         N23       1.0000    0.50110   0.59140   0.81920   Biso      1.000     N          -0.418567           
         N24       1.0000    0.93000   0.04950   0.99080   Biso      1.000     N          -0.241568           
         O1        1.0000    0.20940   0.35720   0.57170   Biso      1.000     O          -0.559348           
         O2        1.0000    0.47950   0.13800   0.52660   Biso      1.000     O          -0.468502           
         O3        1.0000    0.52050   0.63800   0.97340   Biso      1.000     O          -0.468485           
         O4        1.0000    0.87980   0.07860   0.30450   Biso      1.000     O          -0.555081           
         O5        1.0000    0.37410   0.19720   0.71970   Biso      1.000     O          -0.480855           
         O6        1.0000    0.02050   0.86200   0.02660   Biso      1.000     O          -0.468511           
         O7        1.0000    0.87410   0.30280   0.28030   Biso      1.000     O          -0.480872           
         O8        1.0000    0.62020   0.92140   0.80450   Biso      1.000     O          -0.5551   
         O9        1.0000    0.38600   0.44840   0.82980   Biso      1.000     O          -0.550786           
         O10       1.0000    0.62590   0.69720   0.78030   Biso      1.000     O          -0.480833           
         O11       1.0000    0.11400   0.55160   0.32980   Biso      1.000     O          -0.55082  
         O12       1.0000    0.37980   0.42140   0.69550   Biso      1.000     O          -0.555087           
         O13       1.0000    0.29060   0.64280   0.07170   Biso      1.000     O          -0.559349           
         O14       1.0000    0.12020   0.57860   0.19550   Biso      1.000     O          -0.555132           
         O15       1.0000    0.61400   0.94840   0.67020   Biso      1.000     O          -0.550798           
         O16       1.0000    0.21340   0.39300   0.43850   Biso      1.000     O          -0.55669  
         O17       1.0000    0.12590   0.80280   0.21970   Biso      1.000     O          -0.480844           
         O18       1.0000    0.28660   0.60700   0.93850   Biso      1.000     O          -0.556698           
         O19       1.0000    0.79060   0.85720   0.92830   Biso      1.000     O          -0.559345           
         O20       1.0000    0.97950   0.36200   0.47340   Biso      1.000     O          -0.468535           
         O21       1.0000    0.88600   0.05160   0.17020   Biso      1.000     O          -0.550796           
         O22       1.0000    0.71340   0.10700   0.56150   Biso      1.000     O          -0.556721           
         O23       1.0000    0.78660   0.89300   0.06150   Biso      1.000     O          -0.556695           
         O24       1.0000    0.70940   0.14280   0.42830   Biso      1.000     O          -0.559367 