
##########################################################################
#               Crystallographic Information Format file
#               Produced by PyCifRW module
#
#  This is a CIF file.  CIF has been adopted by the International
#  Union of Crystallography as the standard for data archiving and
#  transmission.
#
#  For information on this file format, follow the CIF links at
#  http://www.iucr.org
##########################################################################

data_image0

_cell_length_a                          13.492
_cell_length_b                          14.377
_cell_length_c                          16.191
_cell_angle_alpha                       90
_cell_angle_beta                        90
_cell_angle_gamma                       90
_symmetry_space_group_name_H-M          'P 1'
_symmetry_int_tables_number             1
loop_
  _symmetry_equiv_pos_as_xyz
         'x, y, z' 
loop_
  _atom_site_label
  _atom_site_occupancy
  _atom_site_fract_x
  _atom_site_fract_y
  _atom_site_fract_z
  _atom_site_thermal_displace_type
  _atom_site_B_iso_or_equiv
  _atom_site_type_symbol
  _atom_site_charge
         C1        1.0000    0.62350   0.05870   0.22860   Biso      1.000     C          -0.516268           
         C2        1.0000    0.60170   0.87190   0.68430   Biso      1.000     C          -0.481728           
         C3        1.0000    0.44750   0.83500   0.82900   Biso      1.000     C          0.356642  
         C4        1.0000    0.61070   0.75940   0.25760   Biso      1.000     C          0.223228  
         C5        1.0000    0.38930   0.25940   0.24240   Biso      1.000     C          0.223228  
         C6        1.0000    0.93300   0.88140   0.97610   Biso      1.000     C          -0.481975           
         C7        1.0000    0.55090   0.15310   0.10230   Biso      1.000     C          -0.112478           
         C8        1.0000    0.44080   0.80690   0.91860   Biso      1.000     C          0.355197  
         C9        1.0000    0.92990   0.22400   0.83610   Biso      1.000     C          -0.144574           
         C10       1.0000    0.50530   0.67820   0.55020   Biso      1.000     C          -0.525438           
         C11       1.0000    0.35570   0.69370   0.00750   Biso      1.000     C          0.069146  
         C12       1.0000    0.55250   0.33500   0.67100   Biso      1.000     C          0.356642  
         C13       1.0000    0.07010   0.72400   0.66390   Biso      1.000     C          -0.144574           
         C14       1.0000    0.12350   0.44130   0.77140   Biso      1.000     C          -0.516274           
         C15       1.0000    0.53760   0.12470   0.01980   Biso      1.000     C          0.21783   
         C16       1.0000    0.75470   0.85180   0.00160   Biso      1.000     C          0.596708  
         C17       1.0000    0.14840   0.63430   0.53600   Biso      1.000     C          -0.51844  
         C18       1.0000    0.64840   0.86570   0.46400   Biso      1.000     C          -0.51849  
         C19       1.0000    0.89830   0.12810   0.18430   Biso      1.000     C          -0.481978           
         C20       1.0000    0.10170   0.62810   0.31570   Biso      1.000     C          -0.481978           
         C21       1.0000    0.59170   0.07720   0.14180   Biso      1.000     C          0.211954  
         C22       1.0000    0.96620   0.75030   0.63570   Biso      1.000     C          -0.254848           
         C23       1.0000    0.64080   0.82670   0.37740   Biso      1.000     C          0.201518  
         C24       1.0000    0.14430   0.30630   0.50750   Biso      1.000     C          0.067628  
         C25       1.0000    0.46620   0.74970   0.36430   Biso      1.000     C          -0.254956           
         C26       1.0000    0.64430   0.19370   0.49250   Biso      1.000     C          0.069146  
         C27       1.0000    0.96240   0.87530   0.51980   Biso      1.000     C          0.216434  
         C28       1.0000    0.42990   0.27600   0.16390   Biso      1.000     C          -0.145077           
         C29       1.0000    0.10060   0.47490   0.24400   Biso      1.000     C          0.589966  
         C30       1.0000    0.85160   0.13430   0.96400   Biso      1.000     C          -0.51844  
         C31       1.0000    0.06700   0.38140   0.52390   Biso      1.000     C          -0.481975           
         C32       1.0000    0.56880   0.71020   0.18600   Biso      1.000     C          -0.526552           
         C33       1.0000    0.45980   0.43790   0.76160   Biso      1.000     C          0.067548  
         C34       1.0000    0.88930   0.24060   0.75760   Biso      1.000     C          0.224262  
         C35       1.0000    0.40830   0.57720   0.35820   Biso      1.000     C          0.211951  
         C36       1.0000    0.09170   0.42280   0.85820   Biso      1.000     C          0.210904  
         C37       1.0000    0.55920   0.30690   0.58140   Biso      1.000     C          0.355197  
         C38       1.0000    0.95980   0.06210   0.23840   Biso      1.000     C          0.06587   
         C39       1.0000    0.57010   0.77600   0.33610   Biso      1.000     C          -0.145072           
         C40       1.0000    0.00530   0.82180   0.44980   Biso      1.000     C          -0.525334           
         C41       1.0000    0.49470   0.17820   0.94980   Biso      1.000     C          -0.525438           
         C42       1.0000    0.05920   0.19310   0.41860   Biso      1.000     C          0.350173  
         C43       1.0000    0.93120   0.28980   0.68600   Biso      1.000     C          -0.526668           
         C44       1.0000    0.03380   0.25030   0.86430   Biso      1.000     C          -0.254848           
         C45       1.0000    0.04020   0.56210   0.26160   Biso      1.000     C          0.06587   
         C46       1.0000    0.53380   0.24970   0.13570   Biso      1.000     C          -0.254956           
         C47       1.0000    0.46240   0.62470   0.48020   Biso      1.000     C          0.21783   
         C48       1.0000    0.56700   0.11860   0.47610   Biso      1.000     C          -0.481891           
         C49       1.0000    0.43300   0.61860   0.02390   Biso      1.000     C          -0.481891           
         C50       1.0000    0.85570   0.80630   0.99250   Biso      1.000     C          0.067629  
         C51       1.0000    0.87650   0.94130   0.72860   Biso      1.000     C          -0.516274           
         C52       1.0000    0.43120   0.21020   0.31400   Biso      1.000     C          -0.526551           
         C53       1.0000    0.99470   0.32180   0.05020   Biso      1.000     C          -0.525334           
         C54       1.0000    0.89940   0.97490   0.25600   Biso      1.000     C          0.589966  
         C55       1.0000    0.54020   0.93790   0.73840   Biso      1.000     C          0.067548  
         C56       1.0000    0.35920   0.32670   0.12260   Biso      1.000     C          0.201522  
         C57       1.0000    0.05090   0.34690   0.89770   Biso      1.000     C          -0.113207           
         C58       1.0000    0.37650   0.55870   0.27140   Biso      1.000     C          -0.516268           
         C59       1.0000    0.90830   0.92280   0.64180   Biso      1.000     C          0.210907  
         C60       1.0000    0.44910   0.65310   0.39770   Biso      1.000     C          -0.112474           
         C61       1.0000    0.05250   0.16500   0.32900   Biso      1.000     C          0.350718  
         C62       1.0000    0.39830   0.37190   0.81570   Biso      1.000     C          -0.481728           
         C63       1.0000    0.24530   0.35180   0.49840   Biso      1.000     C          0.596708  
         C64       1.0000    0.06880   0.78980   0.81400   Biso      1.000     C          -0.526668           
         C65       1.0000    0.74530   0.14820   0.50160   Biso      1.000     C          0.596899  
         C66       1.0000    0.94910   0.84690   0.60230   Biso      1.000     C          -0.113207           
         C67       1.0000    0.94080   0.69310   0.08140   Biso      1.000     C          0.350173  
         C68       1.0000    0.85920   0.17330   0.87740   Biso      1.000     C          0.201851  
         C69       1.0000    0.35160   0.36570   0.03600   Biso      1.000     C          -0.51849  
         C70       1.0000    0.60060   0.02510   0.75600   Biso      1.000     C          0.592237  
         C71       1.0000    0.39940   0.52510   0.74400   Biso      1.000     C          0.592237  
         C72       1.0000    0.03760   0.37530   0.98020   Biso      1.000     C          0.216437  
         C73       1.0000    0.11070   0.74060   0.74240   Biso      1.000     C          0.224262  
         C74       1.0000    0.14080   0.67330   0.62260   Biso      1.000     C          0.201851  
         C75       1.0000    0.25470   0.64820   0.99840   Biso      1.000     C          0.596899  
         C76       1.0000    0.94750   0.66500   0.17100   Biso      1.000     C          0.350718  
         Cu1       1.0000    0.70060   0.20674   0.66398   Biso      1.000     Cu          0.736178  
         Cu2       1.0000    0.92989   0.04879   0.41501   Biso      1.000     Cu          0.683794  
         Cu3       1.0000    0.07011   0.54879   0.08499   Biso      1.000     Cu          0.683797  
         Cu4       1.0000    0.42989   0.45121   0.58499   Biso      1.000     Cu          0.718999  
         Cu5       1.0000    0.57011   0.95121   0.91501   Biso      1.000     Cu          0.719     
         Cu6       1.0000    0.79940   0.79326   0.16398   Biso      1.000     Cu          0.706229  
         Cu7       1.0000    0.29940   0.70674   0.83602   Biso      1.000     Cu          0.736178  
         Cu8       1.0000    0.20060   0.29326   0.33602   Biso      1.000     Cu          0.706229  
         H1        1.0000    0.16180   0.64540   0.28660   Biso      1.000     H          0.156795  
         H2        1.0000    0.49260   0.24000   0.33050   Biso      1.000     H          0.172801  
         H3        1.0000    0.14650   0.68480   0.49640   Biso      1.000     H          0.164691  
         H4        1.0000    0.06330   0.68350   0.32770   Biso      1.000     H          0.160432  
         H5        1.0000    0.99790   0.85280   0.97070   Biso      1.000     H          0.162798  
         H6        1.0000    0.44860   0.79620   0.40370   Biso      1.000     H          0.127561  
         H7        1.0000    0.27410   0.63490   0.66150   Biso      1.000     H          0.289932  
         H8        1.0000    0.91480   0.99250   0.75100   Biso      1.000     H          0.1697    
         H9        1.0000    0.78980   0.10050   0.96980   Biso      1.000     H          0.182557  
         H10       1.0000    0.88440   0.28790   0.64060   Biso      1.000     H          0.163428  
         H11       1.0000    0.00210   0.35280   0.52930   Biso      1.000     H          0.162798  
         H12       1.0000    0.37640   0.45420   0.40500   Biso      1.000     H          0.29403   
         H13       1.0000    0.40670   0.40760   0.02600   Biso      1.000     H          0.169088  
         H14       1.0000    0.35490   0.73970   0.05300   Biso      1.000     H          0.088302  
         H15       1.0000    0.61890   0.90290   0.63310   Biso      1.000     H          0.155227  
         H16       1.0000    0.33820   0.35460   0.78660   Biso      1.000     H          0.156364  
         H17       1.0000    0.50740   0.74000   0.16950   Biso      1.000     H          0.172802  
         H18       1.0000    0.97830   0.54510   0.29080   Biso      1.000     H          0.09214   
         H19       1.0000    0.07160   0.20760   0.83240   Biso      1.000     H          0.142681  
         H20       1.0000    0.64510   0.23970   0.44700   Biso      1.000     H          0.088302  
         H21       1.0000    0.69340   0.04280   0.22940   Biso      1.000     H          0.178454  
         H22       1.0000    0.44440   0.14600   0.29920   Biso      1.000     H          0.167543  
         H23       1.0000    0.85490   0.76030   0.94700   Biso      1.000     H          0.089155  
         H24       1.0000    0.19340   0.45720   0.77060   Biso      1.000     H          0.178265  
         H25       1.0000    0.96630   0.76610   0.44060   Biso      1.000     H          0.171365  
         H26       1.0000    0.43670   0.31650   0.82770   Biso      1.000     H          0.160535  
         H27       1.0000    0.72590   0.13490   0.83850   Biso      1.000     H          0.289932  
         H28       1.0000    0.57300   0.69550   0.53710   Biso      1.000     H          0.165615  
         H29       1.0000    0.49540   0.14010   0.90040   Biso      1.000     H          0.170531  
         H30       1.0000    0.93670   0.18350   0.17230   Biso      1.000     H          0.160432  
         H31       1.0000    0.83820   0.14540   0.21340   Biso      1.000     H          0.156795  
         H32       1.0000    0.58330   0.08610   0.42540   Biso      1.000     H          0.149896  
         H33       1.0000    0.06620   0.42510   0.47830   Biso      1.000     H          0.157554  
         H34       1.0000    0.38440   0.21210   0.35940   Biso      1.000     H          0.163598  
         H35       1.0000    0.21020   0.60050   0.53020   Biso      1.000     H          0.182557  
         H36       1.0000    0.58520   0.00750   0.25100   Biso      1.000     H          0.170058  
         H37       1.0000    0.22590   0.36510   0.16150   Biso      1.000     H          0.289923  
         H38       1.0000    0.05140   0.20380   0.90370   Biso      1.000     H          0.127453  
         H39       1.0000    0.94440   0.35400   0.70080   Biso      1.000     H          0.167807  
         H40       1.0000    0.85350   0.18480   0.00360   Biso      1.000     H          0.164691  
         H41       1.0000    0.87640   0.04580   0.59500   Biso      1.000     H          0.294014  
         H42       1.0000    0.42840   0.79240   0.33240   Biso      1.000     H          0.142903  
         H43       1.0000    0.55140   0.29620   0.09630   Biso      1.000     H          0.127561  
         H44       1.0000    0.49790   0.64720   0.02930   Biso      1.000     H          0.162659  
         H45       1.0000    0.47830   0.95490   0.70920   Biso      1.000     H          0.091759  
         H46       1.0000    0.38730   0.61390   0.23810   Biso      1.000     H          0.170008  
         H47       1.0000    0.35350   0.31520   0.99640   Biso      1.000     H          0.164493  
         H48       1.0000    0.46630   0.73390   0.55940   Biso      1.000     H          0.17192   
         H49       1.0000    0.14510   0.26030   0.55300   Biso      1.000     H          0.089155  
         H50       1.0000    0.56330   0.81650   0.67230   Biso      1.000     H          0.160534  
         H51       1.0000    0.38110   0.40290   0.86690   Biso      1.000     H          0.155227  
         H52       1.0000    0.92840   0.70760   0.66760   Biso      1.000     H          0.14268   
         H53       1.0000    0.93380   0.92510   0.02170   Biso      1.000     H          0.157554  
         H54       1.0000    0.03370   0.26610   0.05940   Biso      1.000     H          0.171365  
         H55       1.0000    0.88110   0.09710   0.13310   Biso      1.000     H          0.155493  
         H56       1.0000    0.09330   0.59240   0.52600   Biso      1.000     H          0.169037  
         H57       1.0000    0.61270   0.11390   0.26190   Biso      1.000     H          0.170008  
         H58       1.0000    0.52170   0.45490   0.79080   Biso      1.000     H          0.091759  
         H59       1.0000    0.30660   0.54280   0.27060   Biso      1.000     H          0.178455  
         H60       1.0000    0.50460   0.64010   0.59960   Biso      1.000     H          0.170531  
         H61       1.0000    0.56620   0.07490   0.52170   Biso      1.000     H          0.157258  
         H62       1.0000    0.57160   0.29240   0.16760   Biso      1.000     H          0.142903  
         H63       1.0000    0.62360   0.95420   0.09500   Biso      1.000     H          0.29403   
         H64       1.0000    0.55560   0.64600   0.20080   Biso      1.000     H          0.167545  
         H65       1.0000    0.91670   0.91390   0.92540   Biso      1.000     H          0.150523  
         H66       1.0000    0.43380   0.57490   0.97830   Biso      1.000     H          0.157258  
         H67       1.0000    0.11560   0.78790   0.85940   Biso      1.000     H          0.163428  
         H68       1.0000    0.50210   0.14720   0.47070   Biso      1.000     H          0.162659  
         H69       1.0000    0.53370   0.23390   0.94060   Biso      1.000     H          0.171919  
         H70       1.0000    0.80660   0.95720   0.72940   Biso      1.000     H          0.178265  
         H71       1.0000    0.90670   0.09240   0.97400   Biso      1.000     H          0.169037  
         H72       1.0000    0.88730   0.88610   0.76190   Biso      1.000     H          0.169675  
         H73       1.0000    0.28980   0.39950   0.03020   Biso      1.000     H          0.182865  
         H74       1.0000    0.94860   0.70380   0.59630   Biso      1.000     H          0.127453  
         H75       1.0000    0.12360   0.54580   0.90500   Biso      1.000     H          0.294012  
         H76       1.0000    0.08520   0.49250   0.74900   Biso      1.000     H          0.1697    
         H77       1.0000    0.92700   0.30450   0.03710   Biso      1.000     H          0.165171  
         H78       1.0000    0.42700   0.19550   0.96290   Biso      1.000     H          0.165615  
         H79       1.0000    0.07300   0.80450   0.46290   Biso      1.000     H          0.16517   
         H80       1.0000    0.05560   0.85400   0.79920   Biso      1.000     H          0.167808  
         H81       1.0000    0.11270   0.38610   0.73810   Biso      1.000     H          0.169675  
         H82       1.0000    0.11890   0.59710   0.36690   Biso      1.000     H          0.155493  
         H83       1.0000    0.64650   0.81520   0.50360   Biso      1.000     H          0.164494  
         H84       1.0000    0.77410   0.86510   0.33850   Biso      1.000     H          0.289923  
         H85       1.0000    0.08330   0.41390   0.57460   Biso      1.000     H          0.150523  
         H86       1.0000    0.00740   0.76000   0.83050   Biso      1.000     H          0.172819  
         H87       1.0000    0.71020   0.89950   0.46980   Biso      1.000     H          0.182865  
         H88       1.0000    0.02170   0.04510   0.20920   Biso      1.000     H          0.092139  
         H89       1.0000    0.61560   0.71210   0.14060   Biso      1.000     H          0.163599  
         H90       1.0000    0.66180   0.85460   0.71340   Biso      1.000     H          0.156364  
         H91       1.0000    0.41480   0.50750   0.24900   Biso      1.000     H          0.170058  
         H92       1.0000    0.00460   0.85990   0.40040   Biso      1.000     H          0.170501  
         H93       1.0000    0.99260   0.26000   0.66950   Biso      1.000     H          0.172819  
         H94       1.0000    0.99540   0.35990   0.09960   Biso      1.000     H          0.170501  
         H95       1.0000    0.59330   0.90760   0.47400   Biso      1.000     H          0.169089  
         H96       1.0000    0.41670   0.58610   0.07460   Biso      1.000     H          0.149896  
         N1        1.0000    0.28080   0.33690   0.17440   Biso      1.000     N          -0.170141           
         N2        1.0000    0.37820   0.73920   0.92890   Biso      1.000     N          -0.408992           
         N3        1.0000    0.79900   0.20230   0.75230   Biso      1.000     N          -0.23085  
         N4        1.0000    0.29900   0.29770   0.24770   Biso      1.000     N          -0.226159           
         N5        1.0000    0.89980   0.99060   0.58480   Biso      1.000     N          -0.167963           
         N6        1.0000    0.43190   0.53730   0.48940   Biso      1.000     N          -0.238531           
         N7        1.0000    0.56810   0.03730   0.01060   Biso      1.000     N          -0.238532           
         N8        1.0000    0.12180   0.26080   0.42890   Biso      1.000     N          -0.394182           
         N9        1.0000    0.01630   0.60350   0.18240   Biso      1.000     N          -0.399547           
         N10       1.0000    0.98370   0.10350   0.31760   Biso      1.000     N          -0.399546           
         N11       1.0000    0.60020   0.00940   0.08480   Biso      1.000     N          -0.167396           
         N12       1.0000    0.20100   0.70230   0.74770   Biso      1.000     N          -0.23085  
         N13       1.0000    0.51630   0.89650   0.81760   Biso      1.000     N          -0.415286           
         N14       1.0000    0.06810   0.46270   0.98940   Biso      1.000     N          -0.232944           
         N15       1.0000    0.78080   0.16310   0.82560   Biso      1.000     N          -0.169385           
         N16       1.0000    0.62180   0.23920   0.57110   Biso      1.000     N          -0.408992           
         N17       1.0000    0.93190   0.96270   0.51060   Biso      1.000     N          -0.232914           
         N18       1.0000    0.10020   0.49060   0.91520   Biso      1.000     N          -0.167934           
         N19       1.0000    0.71920   0.83690   0.32560   Biso      1.000     N          -0.17014  
         N20       1.0000    0.21920   0.66310   0.67440   Biso      1.000     N          -0.169385           
         N21       1.0000    0.87820   0.76080   0.07110   Biso      1.000     N          -0.394183           
         N22       1.0000    0.48370   0.39650   0.68240   Biso      1.000     N          -0.415286           
         N23       1.0000    0.39980   0.50940   0.41520   Biso      1.000     N          -0.167395           
         N24       1.0000    0.70100   0.79770   0.25230   Biso      1.000     N          -0.226159           
         O1        1.0000    0.12180   0.45740   0.16900   Biso      1.000     O          -0.543709           
         O2        1.0000    0.37820   0.54260   0.66900   Biso      1.000     O          -0.548913           
         O3        1.0000    0.87280   0.92720   0.19670   Biso      1.000     O          -0.56556  
         O4        1.0000    0.62180   0.04260   0.83100   Biso      1.000     O          -0.548914           
         O5        1.0000    0.71830   0.89000   0.94120   Biso      1.000     O          -0.549899           
         O6        1.0000    0.12720   0.42720   0.30330   Biso      1.000     O          -0.56556  
         O7        1.0000    0.61140   0.29830   0.72370   Biso      1.000     O          -0.4852   
         O8        1.0000    0.88860   0.70170   0.22370   Biso      1.000     O          -0.468644           
         O9        1.0000    0.78460   0.14900   0.57480   Biso      1.000     O          -0.559776           
         O10       1.0000    0.21830   0.61000   0.05880   Biso      1.000     O          -0.548239           
         O11       1.0000    0.71540   0.85100   0.07480   Biso      1.000     O          -0.553252           
         O12       1.0000    0.49300   0.84890   0.97170   Biso      1.000     O          -0.468524           
         O13       1.0000    0.21540   0.64900   0.92520   Biso      1.000     O          -0.559777           
         O14       1.0000    0.28170   0.39000   0.55880   Biso      1.000     O          -0.549899           
         O15       1.0000    0.62720   0.07280   0.69670   Biso      1.000     O          -0.567913           
         O16       1.0000    0.78170   0.11000   0.44120   Biso      1.000     O          -0.548238           
         O17       1.0000    0.28460   0.35100   0.42520   Biso      1.000     O          -0.553253           
         O18       1.0000    0.11140   0.20170   0.27630   Biso      1.000     O          -0.468644           
         O19       1.0000    0.87820   0.95740   0.33100   Biso      1.000     O          -0.54371  
         O20       1.0000    0.37280   0.57280   0.80330   Biso      1.000     O          -0.567912           
         O21       1.0000    0.00700   0.15110   0.47170   Biso      1.000     O          -0.45215  
         O22       1.0000    0.38860   0.79830   0.77630   Biso      1.000     O          -0.4852   
         O23       1.0000    0.50700   0.34890   0.52830   Biso      1.000     O          -0.468523           
         O24       1.0000    0.99300   0.65110   0.02830   Biso      1.000     O          -0.45215 