
##########################################################################
#               Crystallographic Information Format file
#               Produced by PyCifRW module
#
#  This is a CIF file.  CIF has been adopted by the International
#  Union of Crystallography as the standard for data archiving and
#  transmission.
#
#  For information on this file format, follow the CIF links at
#  http://www.iucr.org
##########################################################################

data_image0

_cell_length_a                          13.041
_cell_length_b                          14.411
_cell_length_c                          16.307
_cell_angle_alpha                       90
_cell_angle_beta                        90
_cell_angle_gamma                       90
_symmetry_space_group_name_H-M          'P 1'
_symmetry_int_tables_number             1
loop_
  _symmetry_equiv_pos_as_xyz
         'x, y, z' 
loop_
  _atom_site_label
  _atom_site_occupancy
  _atom_site_fract_x
  _atom_site_fract_y
  _atom_site_fract_z
  _atom_site_thermal_displace_type
  _atom_site_B_iso_or_equiv
  _atom_site_type_symbol
  _atom_site_charge
         C1        1.0000    0.04400   0.36140   0.01840   Biso      1.000     C          0.219075  
         C2        1.0000    0.57120   0.88330   0.31910   Biso      1.000     C          -0.486493           
         C3        1.0000    0.95600   0.86140   0.48160   Biso      1.000     C          0.219073  
         C4        1.0000    0.64940   0.87150   0.53830   Biso      1.000     C          -0.524092           
         C5        1.0000    0.91130   0.96590   0.74560   Biso      1.000     C          0.594945  
         C6        1.0000    0.13520   0.42870   0.22500   Biso      1.000     C          -0.522482           
         C7        1.0000    0.85060   0.12850   0.03830   Biso      1.000     C          -0.524092           
         C8        1.0000    0.99750   0.80660   0.55090   Biso      1.000     C          -0.535018           
         C9        1.0000    0.35270   0.69530   0.99070   Biso      1.000     C          0.071872  
         C10       1.0000    0.54920   0.26420   0.86680   Biso      1.000     C          -0.204737           
         C11       1.0000    0.13620   0.66710   0.37510   Biso      1.000     C          0.21257   
         C12       1.0000    0.94310   0.21100   0.16420   Biso      1.000     C          -0.1383   
         C13       1.0000    0.96120   0.26580   0.31630   Biso      1.000     C          -0.532803           
         C14       1.0000    0.07200   0.18410   0.57880   Biso      1.000     C          0.358714  
         C15       1.0000    0.53880   0.73420   0.81630   Biso      1.000     C          -0.532803           
         C16       1.0000    0.08870   0.46590   0.75440   Biso      1.000     C          0.594945  
         C17       1.0000    0.44310   0.28900   0.83580   Biso      1.000     C          -0.1383   
         C18       1.0000    0.46120   0.23420   0.68370   Biso      1.000     C          -0.532803           
         C19       1.0000    0.50250   0.19340   0.05090   Biso      1.000     C          -0.535017           
         C20       1.0000    0.75100   0.14550   0.50190   Biso      1.000     C          0.596044  
         C21       1.0000    0.56290   0.16720   0.90070   Biso      1.000     C          -0.141413           
         C22       1.0000    0.85270   0.80470   0.00930   Biso      1.000     C          0.071873  
         C23       1.0000    0.57200   0.31590   0.42120   Biso      1.000     C          0.358714  
         C24       1.0000    0.03880   0.76580   0.18370   Biso      1.000     C          -0.532803           
         C25       1.0000    0.10100   0.41000   0.13830   Biso      1.000     C          0.215337  
         C26       1.0000    0.25100   0.35450   0.49810   Biso      1.000     C          0.596044  
         C27       1.0000    0.36380   0.33290   0.87510   Biso      1.000     C          0.212572  
         C28       1.0000    0.14730   0.30470   0.49070   Biso      1.000     C          0.071874  
         C29       1.0000    0.63620   0.83290   0.62490   Biso      1.000     C          0.212567  
         C30       1.0000    0.09210   0.72480   0.25550   Biso      1.000     C          0.21915   
         C31       1.0000    0.06230   0.37670   0.47800   Biso      1.000     C          -0.487136           
         C32       1.0000    0.36480   0.57130   0.72500   Biso      1.000     C          -0.522481           
         C33       1.0000    0.95080   0.73580   0.36680   Biso      1.000     C          -0.204738           
         C34       1.0000    0.05690   0.71100   0.33580   Biso      1.000     C          -0.138293           
         C35       1.0000    0.42880   0.38330   0.18090   Biso      1.000     C          -0.486493           
         C36       1.0000    0.41130   0.53410   0.25440   Biso      1.000     C          0.594944  
         C37       1.0000    0.45080   0.76420   0.63320   Biso      1.000     C          -0.204739           
         C38       1.0000    0.56230   0.12330   0.52200   Biso      1.000     C          -0.487136           
         C39       1.0000    0.56710   0.34370   0.33100   Biso      1.000     C          0.374495  
         C40       1.0000    0.59210   0.77520   0.74450   Biso      1.000     C          0.219153  
         C41       1.0000    0.43710   0.66720   0.59930   Biso      1.000     C          -0.141413           
         C42       1.0000    0.49750   0.69340   0.44910   Biso      1.000     C          -0.535018           
         C43       1.0000    0.93770   0.87670   0.02200   Biso      1.000     C          -0.487136           
         C44       1.0000    0.92880   0.11670   0.81910   Biso      1.000     C          -0.486493           
         C45       1.0000    0.42800   0.81590   0.07880   Biso      1.000     C          0.358715  
         C46       1.0000    0.64730   0.19530   0.50930   Biso      1.000     C          0.071873  
         C47       1.0000    0.93710   0.83280   0.40070   Biso      1.000     C          -0.141413           
         C48       1.0000    0.89900   0.91000   0.36170   Biso      1.000     C          0.21534   
         C49       1.0000    0.86480   0.92870   0.27500   Biso      1.000     C          -0.522481           
         C50       1.0000    0.92800   0.68410   0.92120   Biso      1.000     C          0.358715  
         C51       1.0000    0.60100   0.09000   0.86170   Biso      1.000     C          0.215338  
         C52       1.0000    0.24900   0.64550   0.99810   Biso      1.000     C          0.596045  
         C53       1.0000    0.97990   0.04920   0.76000   Biso      1.000     C          0.070394  
         C54       1.0000    0.02010   0.54920   0.74000   Biso      1.000     C          0.070394  
         C55       1.0000    0.86380   0.16710   0.12490   Biso      1.000     C          0.212576  
         C56       1.0000    0.47990   0.45080   0.24000   Biso      1.000     C          0.070393  
         C57       1.0000    0.74900   0.85450   0.00190   Biso      1.000     C          0.596045  
         C58       1.0000    0.39900   0.59000   0.63830   Biso      1.000     C          0.21534   
         C59       1.0000    0.00250   0.30660   0.94910   Biso      1.000     C          -0.535017           
         C60       1.0000    0.43770   0.62330   0.97800   Biso      1.000     C          -0.487136           
         C61       1.0000    0.07120   0.61670   0.68090   Biso      1.000     C          -0.486493           
         C62       1.0000    0.52010   0.95080   0.26000   Biso      1.000     C          0.070394  
         C63       1.0000    0.63520   0.07130   0.77500   Biso      1.000     C          -0.522482           
         C64       1.0000    0.04920   0.23580   0.13320   Biso      1.000     C          -0.204738           
         C65       1.0000    0.43290   0.84370   0.16900   Biso      1.000     C          0.374496  
         C66       1.0000    0.45600   0.63860   0.51840   Biso      1.000     C          0.219073  
         C67       1.0000    0.35060   0.37150   0.96170   Biso      1.000     C          -0.524092           
         C68       1.0000    0.54400   0.13860   0.98160   Biso      1.000     C          0.219075  
         C69       1.0000    0.55690   0.78900   0.66420   Biso      1.000     C          -0.138293           
         C70       1.0000    0.90790   0.22480   0.24450   Biso      1.000     C          0.219151  
         C71       1.0000    0.06710   0.15630   0.66900   Biso      1.000     C          0.374496  
         C72       1.0000    0.06290   0.33280   0.09930   Biso      1.000     C          -0.141411           
         C73       1.0000    0.93290   0.65630   0.83100   Biso      1.000     C          0.374496  
         C74       1.0000    0.40790   0.27520   0.75550   Biso      1.000     C          0.219154  
         C75       1.0000    0.14940   0.62850   0.46170   Biso      1.000     C          -0.524091           
         C76       1.0000    0.58870   0.03410   0.24560   Biso      1.000     C          0.594945  
         Cu1       1.0000    0.79009   0.79449   0.83967   Biso      1.000     Cu          0.751317  
         Cu2       1.0000    0.05982   0.53698   0.91402   Biso      1.000     Cu          0.740435  
         Cu3       1.0000    0.20991   0.29449   0.66033   Biso      1.000     Cu          0.75132   
         Cu4       1.0000    0.44018   0.46302   0.41402   Biso      1.000     Cu          0.740434  
         Cu5       1.0000    0.94018   0.03698   0.58598   Biso      1.000     Cu          0.740435  
         Cu6       1.0000    0.70991   0.20551   0.33967   Biso      1.000     Cu          0.751315  
         Cu7       1.0000    0.55982   0.96302   0.08598   Biso      1.000     Cu          0.740435  
         Cu8       1.0000    0.29009   0.70551   0.16033   Biso      1.000     Cu          0.751315  
         H1        1.0000    0.93500   0.28490   0.96270   Biso      1.000     H          0.167071  
         H2        1.0000    0.47960   0.17120   0.69570   Biso      1.000     H          0.165555  
         H3        1.0000    0.50090   0.65510   0.40110   Biso      1.000     H          0.173538  
         H4        1.0000    0.91640   0.26440   0.36310   Biso      1.000     H          0.170617  
         H5        1.0000    0.47800   0.76940   0.82800   Biso      1.000     H          0.177038  
         H6        1.0000    0.69140   0.11150   0.76140   Biso      1.000     H          0.17631   
         H7        1.0000    0.04440   0.02780   0.78430   Biso      1.000     H          0.091818  
         H8        1.0000    0.85130   0.76070   0.05520   Biso      1.000     H          0.085642  
         H9        1.0000    0.42420   0.58850   0.92900   Biso      1.000     H          0.151612  
         H10       1.0000    0.87760   0.03520   0.40650   Biso      1.000     H          0.296753  
         H11       1.0000    0.64870   0.23930   0.55520   Biso      1.000     H          0.085642  
         H12       1.0000    0.14160   0.67780   0.50080   Biso      1.000     H          0.166288  
         H13       1.0000    0.07920   0.41740   0.26190   Biso      1.000     H          0.168507  
         H14       1.0000    0.72830   0.13500   0.16620   Biso      1.000     H          0.289486  
         H15       1.0000    0.99750   0.34560   0.47300   Biso      1.000     H          0.16576   
         H16       1.0000    0.40150   0.41820   0.97160   Biso      1.000     H          0.174196  
         H17       1.0000    0.92080   0.91740   0.23810   Biso      1.000     H          0.168507  
         H18       1.0000    0.42080   0.58260   0.76190   Biso      1.000     H          0.168507  
         H19       1.0000    0.71650   0.89830   0.53300   Biso      1.000     H          0.182807  
         H20       1.0000    0.41640   0.23560   0.63690   Biso      1.000     H          0.170617  
         H21       1.0000    0.08450   0.58590   0.62970   Biso      1.000     H          0.155417  
         H22       1.0000    0.06500   0.78490   0.53730   Biso      1.000     H          0.167071  
         H23       1.0000    0.00250   0.84560   0.02700   Biso      1.000     H          0.16576   
         H24       1.0000    0.45360   0.74550   0.43870   Biso      1.000     H          0.175795  
         H25       1.0000    0.99910   0.34490   0.90110   Biso      1.000     H          0.173538  
         H26       1.0000    0.19140   0.38850   0.23860   Biso      1.000     H          0.17631   
         H27       1.0000    0.49910   0.15510   0.09890   Biso      1.000     H          0.173538  
         H28       1.0000    0.21650   0.60170   0.46700   Biso      1.000     H          0.182807  
         H29       1.0000    0.15670   0.49220   0.22980   Biso      1.000     H          0.181011  
         H30       1.0000    0.08360   0.76440   0.13690   Biso      1.000     H          0.170617  
         H31       1.0000    0.52670   0.83130   0.32840   Biso      1.000     H          0.163634  
         H32       1.0000    0.93960   0.91800   0.97580   Biso      1.000     H          0.158917  
         H33       1.0000    0.97960   0.32880   0.30430   Biso      1.000     H          0.165556  
         H34       1.0000    0.14870   0.26070   0.44480   Biso      1.000     H          0.085641  
         H35       1.0000    0.43500   0.21510   0.03730   Biso      1.000     H          0.167071  
         H36       1.0000    0.04640   0.25450   0.93870   Biso      1.000     H          0.175795  
         H37       1.0000    0.50250   0.65440   0.97300   Biso      1.000     H          0.16576   
         H38       1.0000    0.57920   0.08260   0.73810   Biso      1.000     H          0.168507  
         H39       1.0000    0.58450   0.91410   0.37030   Biso      1.000     H          0.155417  
         H40       1.0000    0.37760   0.46480   0.59350   Biso      1.000     H          0.296753  
         H41       1.0000    0.22830   0.36500   0.83380   Biso      1.000     H          0.289485  
         H42       1.0000    0.80860   0.88850   0.26140   Biso      1.000     H          0.17631   
         H43       1.0000    0.93240   0.69190   0.40940   Biso      1.000     H          0.124343  
         H44       1.0000    0.65670   0.00780   0.77020   Biso      1.000     H          0.181011  
         H45       1.0000    0.28350   0.39830   0.96700   Biso      1.000     H          0.182807  
         H46       1.0000    0.63470   0.86200   0.29610   Biso      1.000     H          0.154994  
         H47       1.0000    0.62240   0.96480   0.90650   Biso      1.000     H          0.296752  
         H48       1.0000    0.95360   0.75450   0.56130   Biso      1.000     H          0.175795  
         H49       1.0000    0.77170   0.86500   0.66620   Biso      1.000     H          0.289484  
         H50       1.0000    0.41550   0.41410   0.12970   Biso      1.000     H          0.155417  
         H51       1.0000    0.97330   0.16870   0.82840   Biso      1.000     H          0.163634  
         H52       1.0000    0.12240   0.53520   0.09350   Biso      1.000     H          0.296751  
         H53       1.0000    0.35130   0.73930   0.94480   Biso      1.000     H          0.085642  
         H54       1.0000    0.09850   0.58180   0.47160   Biso      1.000     H          0.174196  
         H55       1.0000    0.54640   0.24550   0.06130   Biso      1.000     H          0.175795  
         H56       1.0000    0.49750   0.15440   0.52700   Biso      1.000     H          0.16576   
         H57       1.0000    0.56500   0.71510   0.46270   Biso      1.000     H          0.167071  
         H58       1.0000    0.59740   0.27240   0.82210   Biso      1.000     H          0.126367  
         H59       1.0000    0.27170   0.63500   0.33380   Biso      1.000     H          0.289486  
         H60       1.0000    0.64160   0.82220   0.49920   Biso      1.000     H          0.166289  
         H61       1.0000    0.35840   0.32220   0.00080   Biso      1.000     H          0.166289  
         H62       1.0000    0.02040   0.82880   0.19570   Biso      1.000     H          0.165556  
         H63       1.0000    0.02200   0.23060   0.32800   Biso      1.000     H          0.177038  
         H64       1.0000    0.00090   0.84490   0.59890   Biso      1.000     H          0.173538  
         H65       1.0000    0.52200   0.26940   0.67200   Biso      1.000     H          0.177038  
         H66       1.0000    0.90150   0.08180   0.02840   Biso      1.000     H          0.174196  
         H67       1.0000    0.09740   0.22760   0.17790   Biso      1.000     H          0.126367  
         H68       1.0000    0.54440   0.47220   0.21570   Biso      1.000     H          0.091819  
         H69       1.0000    0.07580   0.41150   0.42900   Biso      1.000     H          0.151612  
         H70       1.0000    0.30860   0.61150   0.73860   Biso      1.000     H          0.17631   
         H71       1.0000    0.86530   0.13800   0.79610   Biso      1.000     H          0.154994  
         H72       1.0000    0.57580   0.08850   0.57100   Biso      1.000     H          0.151612  
         H73       1.0000    0.92420   0.91150   0.07100   Biso      1.000     H          0.151612  
         H74       1.0000    0.45560   0.97220   0.28430   Biso      1.000     H          0.091818  
         H75       1.0000    0.34330   0.50780   0.72980   Biso      1.000     H          0.181011  
         H76       1.0000    0.84330   0.99220   0.27020   Biso      1.000     H          0.181011  
         H77       1.0000    0.52040   0.67120   0.80430   Biso      1.000     H          0.165556  
         H78       1.0000    0.97800   0.73060   0.17200   Biso      1.000     H          0.177038  
         H79       1.0000    0.59850   0.91820   0.52840   Biso      1.000     H          0.174196  
         H80       1.0000    0.47330   0.33130   0.17160   Biso      1.000     H          0.163634  
         H81       1.0000    0.56040   0.08200   0.47580   Biso      1.000     H          0.158917  
         H82       1.0000    0.43240   0.80810   0.59060   Biso      1.000     H          0.124344  
         H83       1.0000    0.85840   0.17780   0.99920   Biso      1.000     H          0.166289  
         H84       1.0000    0.90260   0.72760   0.32210   Biso      1.000     H          0.126367  
         H85       1.0000    0.36530   0.36200   0.20390   Biso      1.000     H          0.154994  
         H86       1.0000    0.13470   0.63800   0.70390   Biso      1.000     H          0.154994  
         H87       1.0000    0.06760   0.19190   0.09060   Biso      1.000     H          0.124344  
         H88       1.0000    0.02670   0.66870   0.67160   Biso      1.000     H          0.163634  
         H89       1.0000    0.40260   0.77240   0.67790   Biso      1.000     H          0.126367  
         H90       1.0000    0.58360   0.73560   0.86310   Biso      1.000     H          0.170617  
         H91       1.0000    0.78350   0.10170   0.03300   Biso      1.000     H          0.182807  
         H92       1.0000    0.95560   0.52780   0.71570   Biso      1.000     H          0.091818  
         H93       1.0000    0.43960   0.58200   0.02420   Biso      1.000     H          0.158917  
         H94       1.0000    0.56760   0.30810   0.90940   Biso      1.000     H          0.124343  
         H95       1.0000    0.06040   0.41800   0.52420   Biso      1.000     H          0.158917  
         H96       1.0000    0.91550   0.08590   0.87030   Biso      1.000     H          0.155417  
         N1        1.0000    0.21320   0.65920   0.32210   Biso      1.000     N          -0.168537           
         N2        1.0000    0.18870   0.69330   0.24840   Biso      1.000     N          -0.239272           
         N3        1.0000    0.00180   0.09180   0.68150   Biso      1.000     N          -0.427078           
         N4        1.0000    0.89740   0.97960   0.41700   Biso      1.000     N          -0.171509           
         N5        1.0000    0.68870   0.80670   0.75160   Biso      1.000     N          -0.239302           
         N6        1.0000    0.56930   0.04900   0.99070   Biso      1.000     N          -0.245705           
         N7        1.0000    0.50180   0.40820   0.31850   Biso      1.000     N          -0.427078           
         N8        1.0000    0.78680   0.15920   0.17790   Biso      1.000     N          -0.168538           
         N9        1.0000    0.86930   0.75550   0.93220   Biso      1.000     N          -0.419961           
         N10       1.0000    0.13070   0.25550   0.56780   Biso      1.000     N          -0.419962           
         N11       1.0000    0.31130   0.30670   0.74840   Biso      1.000     N          -0.239303           
         N12       1.0000    0.93070   0.95100   0.49070   Biso      1.000     N          -0.245681           
         N13       1.0000    0.06930   0.45100   0.00930   Biso      1.000     N          -0.245705           
         N14       1.0000    0.99820   0.59180   0.81850   Biso      1.000     N          -0.427079           
         N15       1.0000    0.60260   0.02040   0.91700   Biso      1.000     N          -0.171485           
         N16       1.0000    0.39740   0.52040   0.58300   Biso      1.000     N          -0.171508           
         N17       1.0000    0.10260   0.47960   0.08300   Biso      1.000     N          -0.171485           
         N18       1.0000    0.71320   0.84080   0.67790   Biso      1.000     N          -0.168506           
         N19       1.0000    0.49820   0.90820   0.18150   Biso      1.000     N          -0.427078           
         N20       1.0000    0.36930   0.74450   0.06780   Biso      1.000     N          -0.419959           
         N21       1.0000    0.43070   0.54900   0.50930   Biso      1.000     N          -0.245682           
         N22       1.0000    0.81130   0.19330   0.25160   Biso      1.000     N          -0.239272           
         N23       1.0000    0.63070   0.24450   0.43220   Biso      1.000     N          -0.419959           
         N24       1.0000    0.28680   0.34080   0.82210   Biso      1.000     N          -0.168507           
         O1        1.0000    0.88650   0.94890   0.67070   Biso      1.000     O          -0.553841           
         O2        1.0000    0.38650   0.55110   0.32930   Biso      1.000     O          -0.55384  
         O3        1.0000    0.52070   0.36270   0.47340   Biso      1.000     O          -0.489941           
         O4        1.0000    0.78770   0.10760   0.56250   Biso      1.000     O          -0.551623           
         O5        1.0000    0.28770   0.39240   0.43750   Biso      1.000     O          -0.551625           
         O6        1.0000    0.79090   0.14270   0.42870   Biso      1.000     O          -0.565697           
         O7        1.0000    0.87920   0.92150   0.80460   Biso      1.000     O          -0.554267           
         O8        1.0000    0.87370   0.69720   0.78020   Biso      1.000     O          -0.507955           
         O9        1.0000    0.61350   0.05110   0.17070   Biso      1.000     O          -0.553841           
         O10       1.0000    0.12630   0.19720   0.71980   Biso      1.000     O          -0.507955           
         O11       1.0000    0.02070   0.13730   0.52660   Biso      1.000     O          -0.48994  
         O12       1.0000    0.47930   0.86270   0.02660   Biso      1.000     O          -0.489941           
         O13       1.0000    0.71230   0.89240   0.06250   Biso      1.000     O          -0.551625           
         O14       1.0000    0.21230   0.60760   0.93750   Biso      1.000     O          -0.551624           
         O15       1.0000    0.37370   0.80280   0.21980   Biso      1.000     O          -0.507955           
         O16       1.0000    0.97930   0.63730   0.97340   Biso      1.000     O          -0.489941           
         O17       1.0000    0.70910   0.85730   0.92870   Biso      1.000     O          -0.565698           
         O18       1.0000    0.37920   0.57850   0.19540   Biso      1.000     O          -0.554266           
         O19       1.0000    0.62080   0.07850   0.30460   Biso      1.000     O          -0.554266           
         O20       1.0000    0.11350   0.44890   0.82930   Biso      1.000     O          -0.553841           
         O21       1.0000    0.62630   0.30280   0.28020   Biso      1.000     O          -0.507954           
         O22       1.0000    0.29090   0.35730   0.57130   Biso      1.000     O          -0.565697           
         O23       1.0000    0.12080   0.42150   0.69540   Biso      1.000     O          -0.554267           
         O24       1.0000    0.20910   0.64270   0.07130   Biso      1.000     O          -0.565698 