
##########################################################################
#               Crystallographic Information Format file
#               Produced by PyCifRW module
#
#  This is a CIF file.  CIF has been adopted by the International
#  Union of Crystallography as the standard for data archiving and
#  transmission.
#
#  For information on this file format, follow the CIF links at
#  http://www.iucr.org
##########################################################################

data_image0

_cell_length_a                          13.504
_cell_length_b                          14.375
_cell_length_c                          16.193
_cell_angle_alpha                       90
_cell_angle_beta                        90
_cell_angle_gamma                       90
_symmetry_space_group_name_H-M          'P 1'
_symmetry_int_tables_number             1
loop_
  _symmetry_equiv_pos_as_xyz
         'x, y, z' 
loop_
  _atom_site_label
  _atom_site_occupancy
  _atom_site_fract_x
  _atom_site_fract_y
  _atom_site_fract_z
  _atom_site_thermal_displace_type
  _atom_site_B_iso_or_equiv
  _atom_site_type_symbol
  _atom_site_charge
         C1        1.0000    0.09130   0.57710   0.35770   Biso      1.000     C          0.228573  
         C2        1.0000    0.56790   0.28920   0.68560   Biso      1.000     C          -0.521243           
         C3        1.0000    0.85950   0.82670   0.37770   Biso      1.000     C          0.216108  
         C4        1.0000    0.96670   0.25110   0.13510   Biso      1.000     C          -0.099348           
         C5        1.0000    0.56750   0.88080   0.97530   Biso      1.000     C          -0.473757           
         C6        1.0000    0.74570   0.85250   0.00200   Biso      1.000     C          0.59975   
         C7        1.0000    0.46250   0.37550   0.98050   Biso      1.000     C          0.232476  
         C8        1.0000    0.94860   0.15430   0.10190   Biso      1.000     C          -0.175752           
         C9        1.0000    0.35950   0.67330   0.62230   Biso      1.000     C          0.216117  
         C10       1.0000    0.06790   0.21080   0.31440   Biso      1.000     C          -0.521234           
         C11       1.0000    0.46670   0.24890   0.86490   Biso      1.000     C          -0.09946  
         C12       1.0000    0.64890   0.13430   0.96530   Biso      1.000     C          -0.51229  
         C13       1.0000    0.46060   0.56400   0.26190   Biso      1.000     C          0.076759  
         C14       1.0000    0.44100   0.19310   0.41880   Biso      1.000     C          0.357422  
         C15       1.0000    0.55900   0.69310   0.08120   Biso      1.000     C          0.357423  
         C16       1.0000    0.05900   0.80690   0.91880   Biso      1.000     C          0.357423  
         C17       1.0000    0.94810   0.33540   0.67050   Biso      1.000     C          0.358575  
         C18       1.0000    0.57030   0.22330   0.83630   Biso      1.000     C          -0.163484           
         C19       1.0000    0.94100   0.30690   0.58120   Biso      1.000     C          0.35742   
         C20       1.0000    0.59900   0.97470   0.25600   Biso      1.000     C          0.585553  
         C21       1.0000    0.00420   0.17880   0.94900   Biso      1.000     C          -0.521058           
         C22       1.0000    0.90870   0.07710   0.14230   Biso      1.000     C          0.228566  
         C23       1.0000    0.64050   0.17330   0.87770   Biso      1.000     C          0.21611   
         C24       1.0000    0.92970   0.77670   0.33630   Biso      1.000     C          -0.163469           
         C25       1.0000    0.49580   0.82120   0.44900   Biso      1.000     C          -0.521072           
         C26       1.0000    0.03940   0.43600   0.76190   Biso      1.000     C          0.076759  
         C27       1.0000    0.09850   0.37140   0.81650   Biso      1.000     C          -0.472011           
         C28       1.0000    0.99580   0.67880   0.55100   Biso      1.000     C          -0.521066           
         C29       1.0000    0.38900   0.74020   0.74260   Biso      1.000     C          0.233525  
         C30       1.0000    0.85500   0.19380   0.49240   Biso      1.000     C          0.068446  
         C31       1.0000    0.53330   0.74890   0.63510   Biso      1.000     C          -0.099596           
         C32       1.0000    0.40100   0.47470   0.24400   Biso      1.000     C          0.585551  
         C33       1.0000    0.35500   0.30620   0.50760   Biso      1.000     C          0.068447  
         C34       1.0000    0.06750   0.61920   0.02470   Biso      1.000     C          -0.473759           
         C35       1.0000    0.09900   0.52530   0.74400   Biso      1.000     C          0.585551  
         C36       1.0000    0.90100   0.02530   0.75600   Biso      1.000     C          0.585551  
         C37       1.0000    0.03750   0.62450   0.48050   Biso      1.000     C          0.232478  
         C38       1.0000    0.61100   0.24020   0.75740   Biso      1.000     C          0.23352   
         C39       1.0000    0.53750   0.87550   0.51950   Biso      1.000     C          0.232487  
         C40       1.0000    0.11100   0.25980   0.24260   Biso      1.000     C          0.233507  
         C41       1.0000    0.40150   0.62860   0.31650   Biso      1.000     C          -0.472006           
         C42       1.0000    0.03330   0.75110   0.36490   Biso      1.000     C          -0.099444           
         C43       1.0000    0.55140   0.84570   0.60190   Biso      1.000     C          -0.175742           
         C44       1.0000    0.85110   0.86570   0.46530   Biso      1.000     C          -0.512288           
         C45       1.0000    0.14050   0.32670   0.12230   Biso      1.000     C          0.216089  
         C46       1.0000    0.24570   0.64750   0.99800   Biso      1.000     C          0.599751  
         C47       1.0000    0.88900   0.75980   0.25740   Biso      1.000     C          0.233515  
         C48       1.0000    0.42970   0.72330   0.66370   Biso      1.000     C          -0.163464           
         C49       1.0000    0.59130   0.92290   0.64230   Biso      1.000     C          0.228581  
         C50       1.0000    0.12410   0.55710   0.27140   Biso      1.000     C          -0.506693           
         C51       1.0000    0.93250   0.11920   0.47530   Biso      1.000     C          -0.47376  
         C52       1.0000    0.25430   0.35250   0.49800   Biso      1.000     C          0.599749  
         C53       1.0000    0.93210   0.71080   0.18560   Biso      1.000     C          -0.521243           
         C54       1.0000    0.14890   0.36570   0.03470   Biso      1.000     C          -0.512281           
         C55       1.0000    0.90150   0.87140   0.68350   Biso      1.000     C          -0.472008           
         C56       1.0000    0.43250   0.38080   0.52470   Biso      1.000     C          -0.473757           
         C57       1.0000    0.75430   0.14750   0.50200   Biso      1.000     C          0.599748  
         C58       1.0000    0.87590   0.05710   0.22860   Biso      1.000     C          -0.506686           
         C59       1.0000    0.44810   0.16460   0.32950   Biso      1.000     C          0.358579  
         C60       1.0000    0.50420   0.32120   0.05100   Biso      1.000     C          -0.521067           
         C61       1.0000    0.37590   0.44290   0.77140   Biso      1.000     C          -0.506692           
         C62       1.0000    0.43210   0.78920   0.81440   Biso      1.000     C          -0.52125  
         C63       1.0000    0.64500   0.80620   0.99240   Biso      1.000     C          0.068448  
         C64       1.0000    0.14500   0.69380   0.00760   Biso      1.000     C          0.068446  
         C65       1.0000    0.53940   0.06400   0.23810   Biso      1.000     C          0.076758  
         C66       1.0000    0.44860   0.34570   0.89810   Biso      1.000     C          -0.175751           
         C67       1.0000    0.05140   0.65430   0.39810   Biso      1.000     C          -0.175759           
         C68       1.0000    0.05190   0.83540   0.82950   Biso      1.000     C          0.35858   
         C69       1.0000    0.40870   0.42290   0.85770   Biso      1.000     C          0.228577  
         C70       1.0000    0.96060   0.93600   0.73810   Biso      1.000     C          0.076759  
         C71       1.0000    0.35110   0.63430   0.53470   Biso      1.000     C          -0.512293           
         C72       1.0000    0.59850   0.12860   0.18350   Biso      1.000     C          -0.472009           
         C73       1.0000    0.07030   0.27670   0.16370   Biso      1.000     C          -0.16347  
         C74       1.0000    0.55190   0.66460   0.17050   Biso      1.000     C          0.358579  
         C75       1.0000    0.62410   0.94290   0.72860   Biso      1.000     C          -0.506696           
         C76       1.0000    0.96250   0.12450   0.01950   Biso      1.000     C          0.232469  
         Cu1       1.0000    0.70084   0.79324   0.16393   Biso      1.000     Cu          0.73483   
         Cu2       1.0000    0.29916   0.29324   0.33607   Biso      1.000     Cu          0.734825  
         Cu3       1.0000    0.43030   0.54870   0.08517   Biso      1.000     Cu          0.72047   
         Cu4       1.0000    0.20084   0.70676   0.83607   Biso      1.000     Cu          0.734827  
         Cu5       1.0000    0.56970   0.04870   0.41483   Biso      1.000     Cu          0.720449  
         Cu6       1.0000    0.93030   0.95130   0.91483   Biso      1.000     Cu          0.720456  
         Cu7       1.0000    0.06970   0.45130   0.58517   Biso      1.000     Cu          0.72045   
         Cu8       1.0000    0.79916   0.20676   0.66393   Biso      1.000     Cu          0.734821  
         H1        1.0000    0.22590   0.63520   0.66110   Biso      1.000     H          0.288533  
         H2        1.0000    0.94620   0.64610   0.20070   Biso      1.000     H          0.16248   
         H3        1.0000    0.93180   0.06570   0.26650   Biso      1.000     H          0.163465  
         H4        1.0000    0.57220   0.30230   0.03800   Biso      1.000     H          0.163644  
         H5        1.0000    0.72590   0.86480   0.33890   Biso      1.000     H          0.288535  
         H6        1.0000    0.49570   0.85990   0.39920   Biso      1.000     H          0.16562   
         H7        1.0000    0.35340   0.25990   0.55360   Biso      1.000     H          0.089884  
         H8        1.0000    0.49770   0.35170   0.53040   Biso      1.000     H          0.16154   
         H9        1.0000    0.08430   0.58640   0.07590   Biso      1.000     H          0.148243  
         H10       1.0000    0.91570   0.08640   0.42410   Biso      1.000     H          0.14824   
         H11       1.0000    0.05380   0.14610   0.29930   Biso      1.000     H          0.162476  
         H12       1.0000    0.85340   0.24010   0.44640   Biso      1.000     H          0.089885  
         H13       1.0000    0.50230   0.85170   0.96960   Biso      1.000     H          0.161541  
         H14       1.0000    0.14670   0.31440   0.99490   Biso      1.000     H          0.164775  
         H15       1.0000    0.85330   0.81440   0.50510   Biso      1.000     H          0.164777  
         H16       1.0000    0.99370   0.74160   0.16900   Biso      1.000     H          0.173208  
         H17       1.0000    0.06620   0.57470   0.97880   Biso      1.000     H          0.154124  
         H18       1.0000    0.64780   0.00720   0.73210   Biso      1.000     H          0.174201  
         H19       1.0000    0.41430   0.20490   0.86190   Biso      1.000     H          0.100712  
         H20       1.0000    0.03650   0.73420   0.56050   Biso      1.000     H          0.171197  
         H21       1.0000    0.64660   0.75990   0.94640   Biso      1.000     H          0.089885  
         H22       1.0000    0.88500   0.71200   0.13960   Biso      1.000     H          0.16252   
         H23       1.0000    0.44030   0.68480   0.32780   Biso      1.000     H          0.159893  
         H24       1.0000    0.21170   0.39920   0.02890   Biso      1.000     H          0.179805  
         H25       1.0000    0.09380   0.40840   0.02430   Biso      1.000     H          0.169608  
         H26       1.0000    0.56620   0.92530   0.02120   Biso      1.000     H          0.154123  
         H27       1.0000    0.55380   0.35390   0.70070   Biso      1.000     H          0.162477  
         H28       1.0000    0.16020   0.35420   0.78840   Biso      1.000     H          0.151447  
         H29       1.0000    0.37310   0.54530   0.90480   Biso      1.000     H          0.291818  
         H30       1.0000    0.12690   0.45470   0.40480   Biso      1.000     H          0.291817  
         H31       1.0000    0.02350   0.95310   0.70930   Biso      1.000     H          0.089667  
         H32       1.0000    0.42780   0.80230   0.46200   Biso      1.000     H          0.163648  
         H33       1.0000    0.53650   0.76580   0.43950   Biso      1.000     H          0.171198  
         H34       1.0000    0.82230   0.09970   0.24370   Biso      1.000     H          0.171289  
         H35       1.0000    0.33980   0.64580   0.28840   Biso      1.000     H          0.151445  
         H36       1.0000    0.56820   0.93430   0.76650   Biso      1.000     H          0.163467  
         H37       1.0000    0.35330   0.68560   0.49490   Biso      1.000     H          0.164778  
         H38       1.0000    0.49370   0.75840   0.83100   Biso      1.000     H          0.173209  
         H39       1.0000    0.91430   0.29510   0.13810   Biso      1.000     H          0.100675  
         H40       1.0000    0.55970   0.18480   0.17220   Biso      1.000     H          0.159895  
         H41       1.0000    0.00630   0.24160   0.33100   Biso      1.000     H          0.173209  
         H42       1.0000    0.07220   0.19770   0.96200   Biso      1.000     H          0.163645  
         H43       1.0000    0.62690   0.04530   0.59520   Biso      1.000     H          0.291816  
         H44       1.0000    0.58430   0.91360   0.92410   Biso      1.000     H          0.148243  
         H45       1.0000    0.32230   0.40030   0.75630   Biso      1.000     H          0.171286  
         H46       1.0000    0.87310   0.95470   0.09520   Biso      1.000     H          0.291819  
         H47       1.0000    0.97650   0.45310   0.79070   Biso      1.000     H          0.089663  
         H48       1.0000    0.58570   0.70490   0.63810   Biso      1.000     H          0.100739  
         H49       1.0000    0.41570   0.41360   0.57590   Biso      1.000     H          0.148243  
         H50       1.0000    0.11500   0.21200   0.36040   Biso      1.000     H          0.162518  
         H51       1.0000    0.90620   0.90840   0.47570   Biso      1.000     H          0.169607  
         H52       1.0000    0.43180   0.43430   0.73350   Biso      1.000     H          0.163466  
         H53       1.0000    0.67770   0.90030   0.74370   Biso      1.000     H          0.171287  
         H54       1.0000    0.64670   0.18560   0.00510   Biso      1.000     H          0.164777  
         H55       1.0000    0.66020   0.14580   0.21160   Biso      1.000     H          0.151449  
         H56       1.0000    0.96350   0.23420   0.93950   Biso      1.000     H          0.1712    
         H57       1.0000    0.50630   0.25840   0.66900   Biso      1.000     H          0.173206  
         H58       1.0000    0.05970   0.31520   0.82780   Biso      1.000     H          0.159891  
         H59       1.0000    0.83980   0.85420   0.71160   Biso      1.000     H          0.151448  
         H60       1.0000    0.40620   0.59160   0.52430   Biso      1.000     H          0.169606  
         H61       1.0000    0.11410   0.40280   0.86860   Biso      1.000     H          0.154264  
         H62       1.0000    0.46350   0.26580   0.06050   Biso      1.000     H          0.171196  
         H63       1.0000    0.78830   0.89920   0.47110   Biso      1.000     H          0.179808  
         H64       1.0000    0.44620   0.85390   0.79930   Biso      1.000     H          0.162483  
         H65       1.0000    0.92780   0.69770   0.53800   Biso      1.000     H          0.163644  
         H66       1.0000    0.00430   0.14010   0.89920   Biso      1.000     H          0.165614  
         H67       1.0000    0.59380   0.09160   0.97570   Biso      1.000     H          0.169605  
         H68       1.0000    0.50430   0.35990   0.10080   Biso      1.000     H          0.165616  
         H69       1.0000    0.94030   0.81520   0.67220   Biso      1.000     H          0.159893  
         H70       1.0000    0.28830   0.60080   0.52890   Biso      1.000     H          0.17981   
         H71       1.0000    0.38590   0.59720   0.36860   Biso      1.000     H          0.154266  
         H72       1.0000    0.14660   0.74010   0.05360   Biso      1.000     H          0.089884  
         H73       1.0000    0.85220   0.99280   0.23210   Biso      1.000     H          0.174198  
         H74       1.0000    0.08570   0.79510   0.36190   Biso      1.000     H          0.100707  
         H75       1.0000    0.35220   0.50720   0.76790   Biso      1.000     H          0.1742    
         H76       1.0000    0.88590   0.90280   0.63140   Biso      1.000     H          0.154266  
         H77       1.0000    0.43380   0.42530   0.47880   Biso      1.000     H          0.154124  
         H78       1.0000    0.47650   0.04690   0.20930   Biso      1.000     H          0.089666  
         H79       1.0000    0.14780   0.49280   0.26790   Biso      1.000     H          0.174199  
         H80       1.0000    0.00230   0.64830   0.03040   Biso      1.000     H          0.16154   
         H81       1.0000    0.38500   0.78800   0.86040   Biso      1.000     H          0.162523  
         H82       1.0000    0.06820   0.56570   0.23350   Biso      1.000     H          0.163465  
         H83       1.0000    0.52350   0.54690   0.29070   Biso      1.000     H          0.089665  
         H84       1.0000    0.71170   0.10080   0.97110   Biso      1.000     H          0.179806  
         H85       1.0000    0.61500   0.28800   0.63960   Biso      1.000     H          0.16252   
         H86       1.0000    0.17770   0.59970   0.25630   Biso      1.000     H          0.171286  
         H87       1.0000    0.61410   0.09720   0.13140   Biso      1.000     H          0.154266  
         H88       1.0000    0.77410   0.13520   0.83890   Biso      1.000     H          0.288532  
         H89       1.0000    0.93380   0.07470   0.52120   Biso      1.000     H          0.154122  
         H90       1.0000    0.99570   0.64010   0.60080   Biso      1.000     H          0.165616  
         H91       1.0000    0.27410   0.36480   0.16110   Biso      1.000     H          0.288533  
         H92       1.0000    0.99770   0.14830   0.46960   Biso      1.000     H          0.161537  
         N1        1.0000    0.89880   0.00980   0.08520   Biso      1.000     N          -0.166371           
         N2        1.0000    0.01600   0.39560   0.68280   Biso      1.000     N          -0.408222           
         N3        1.0000    0.20150   0.29670   0.24740   Biso      1.000     N          -0.224842           
         N4        1.0000    0.28130   0.66390   0.67420   Biso      1.000     N          -0.165101           
         N5        1.0000    0.78130   0.83610   0.32580   Biso      1.000     N          -0.165112           
         N6        1.0000    0.39880   0.49020   0.91480   Biso      1.000     N          -0.166356           
         N7        1.0000    0.56680   0.96300   0.51070   Biso      1.000     N          -0.23884  
         N8        1.0000    0.87780   0.23980   0.57040   Biso      1.000     N          -0.406949           
         N9        1.0000    0.60120   0.99020   0.58520   Biso      1.000     N          -0.166328           
         N10       1.0000    0.06680   0.53700   0.48930   Biso      1.000     N          -0.238847           
         N11       1.0000    0.37780   0.26020   0.42960   Biso      1.000     N          -0.406956           
         N12       1.0000    0.48400   0.60440   0.18280   Biso      1.000     N          -0.408228           
         N13       1.0000    0.70150   0.20330   0.75260   Biso      1.000     N          -0.224827           
         N14       1.0000    0.98400   0.89560   0.81720   Biso      1.000     N          -0.408226           
         N15       1.0000    0.71870   0.16390   0.82580   Biso      1.000     N          -0.165077           
         N16       1.0000    0.10120   0.50980   0.41480   Biso      1.000     N          -0.166338           
         N17       1.0000    0.29850   0.70330   0.74740   Biso      1.000     N          -0.22479  
         N18       1.0000    0.93320   0.03700   0.01070   Biso      1.000     N          -0.238844           
         N19       1.0000    0.62220   0.76020   0.07040   Biso      1.000     N          -0.406954           
         N20       1.0000    0.43320   0.46300   0.98930   Biso      1.000     N          -0.238835           
         N21       1.0000    0.79850   0.79670   0.25260   Biso      1.000     N          -0.224797           
         N22       1.0000    0.12220   0.73980   0.92960   Biso      1.000     N          -0.406952           
         N23       1.0000    0.51600   0.10440   0.31720   Biso      1.000     N          -0.408227           
         N24       1.0000    0.21870   0.33610   0.17420   Biso      1.000     N          -0.165092           
         O1        1.0000    0.78250   0.88960   0.94140   Biso      1.000     O          -0.548562           
         O2        1.0000    0.99240   0.35000   0.52840   Biso      1.000     O          -0.463635           
         O3        1.0000    0.61070   0.70160   0.22360   Biso      1.000     O          -0.488263           
         O4        1.0000    0.87840   0.04240   0.83140   Biso      1.000     O          -0.546509           
         O5        1.0000    0.49240   0.15000   0.47160   Biso      1.000     O          -0.463638           
         O6        1.0000    0.71520   0.14940   0.57520   Biso      1.000     O          -0.559833           
         O7        1.0000    0.28250   0.61040   0.05860   Biso      1.000     O          -0.548567           
         O8        1.0000    0.62780   0.92720   0.19690   Biso      1.000     O          -0.561565           
         O9        1.0000    0.21520   0.35060   0.42480   Biso      1.000     O          -0.55984  
         O10       1.0000    0.62160   0.95760   0.33140   Biso      1.000     O          -0.546508           
         O11       1.0000    0.87220   0.07280   0.69690   Biso      1.000     O          -0.561557           
         O12       1.0000    0.71750   0.11040   0.44140   Biso      1.000     O          -0.548565           
         O13       1.0000    0.28480   0.64940   0.92480   Biso      1.000     O          -0.559835           
         O14       1.0000    0.50760   0.65000   0.02840   Biso      1.000     O          -0.463642           
         O15       1.0000    0.00760   0.85000   0.97160   Biso      1.000     O          -0.463637           
         O16       1.0000    0.21750   0.38960   0.55860   Biso      1.000     O          -0.548567           
         O17       1.0000    0.38930   0.20160   0.27640   Biso      1.000     O          -0.488265           
         O18       1.0000    0.37840   0.45760   0.16860   Biso      1.000     O          -0.546512           
         O19       1.0000    0.11070   0.79840   0.77640   Biso      1.000     O          -0.488264           
         O20       1.0000    0.12160   0.54240   0.66860   Biso      1.000     O          -0.54651  
         O21       1.0000    0.12780   0.57280   0.80310   Biso      1.000     O          -0.561565           
         O22       1.0000    0.78480   0.85060   0.07520   Biso      1.000     O          -0.559834           
         O23       1.0000    0.37220   0.42720   0.30310   Biso      1.000     O          -0.561561           
         O24       1.0000    0.88930   0.29840   0.72360   Biso      1.000     O          -0.488258 