
##########################################################################
#               Crystallographic Information Format file
#               Produced by PyCifRW module
#
#  This is a CIF file.  CIF has been adopted by the International
#  Union of Crystallography as the standard for data archiving and
#  transmission.
#
#  For information on this file format, follow the CIF links at
#  http://www.iucr.org
##########################################################################

data_image0

_cell_length_a                          8.4804
_cell_length_b                          14.1017
_cell_length_c                          20.7617
_cell_angle_alpha                       83.472
_cell_angle_beta                        81.241
_cell_angle_gamma                       82.823
_symmetry_space_group_name_H-M          'P 1'
_symmetry_int_tables_number             1
loop_
  _symmetry_equiv_pos_as_xyz
         'x, y, z' 
loop_
  _atom_site_label
  _atom_site_occupancy
  _atom_site_fract_x
  _atom_site_fract_y
  _atom_site_fract_z
  _atom_site_thermal_displace_type
  _atom_site_B_iso_or_equiv
  _atom_site_type_symbol
  _atom_site_charge
         C1        1.0000    0.56300   0.95560   0.80210   Biso      1.000     C          -0.14793299999999998          
         C2        1.0000    0.02640   0.90160   0.28910   Biso      1.000     C          -0.164259           
         C3        1.0000    0.44800   0.25400   0.82080   Biso      1.000     C          -0.15443099999999998          
         C4        1.0000    0.57810   0.05180   0.78270   Biso      1.000     C          -0.163209           
         C5        1.0000    0.22460   0.68310   0.59330   Biso      1.000     C          0.09072100000000001           
         C6        1.0000    0.32650   0.79070   0.46510   Biso      1.000     C          -0.170821           
         C7        1.0000    0.46910   0.31780   0.62100   Biso      1.000     C          -0.166407           
         C8        1.0000    0.32060   0.61900   0.20830   Biso      1.000     C          -0.161645           
         C9        1.0000    0.30010   0.18970   0.03620   Biso      1.000     C          -0.108675           
         C10       1.0000    0.56450   0.87580   0.97560   Biso      1.000     C          -0.157636           
         C11       1.0000    0.59420   0.37000   0.85350   Biso      1.000     C          0.159029  
         C12       1.0000    0.99650   0.88670   0.22670   Biso      1.000     C          0.067608  
         C13       1.0000    0.42190   0.94820   0.21730   Biso      1.000     C          -0.163209           
         C14       1.0000    0.45620   0.76970   0.35580   Biso      1.000     C          0.19404200000000002           
         C15       1.0000    0.84820   0.83170   0.97320   Biso      1.000     C          -0.019280000000000002         
         C16       1.0000    0.57170   0.96420   0.99480   Biso      1.000     C          0.08014199999999999           
         C17       1.0000    0.97540   0.82910   0.72060   Biso      1.000     C          0.564144  
         C18       1.0000    0.03110   0.32240   0.86840   Biso      1.000     C          -0.101224           
         C19       1.0000    0.03850   0.99220   0.30450   Biso      1.000     C          -0.113294           
         C20       1.0000    0.97150   0.79090   0.21060   Biso      1.000     C          0.06876900000000001           
         C21       1.0000    0.96890   0.67760   0.13160   Biso      1.000     C          -0.10122300000000001          
         C22       1.0000    0.46020   0.60110   0.58890   Biso      1.000     C          -0.13708900000000002          
         C23       1.0000    0.27760   0.01530   0.99520   Biso      1.000     C          -0.149054           
         C24       1.0000    0.97360   0.09840   0.71090   Biso      1.000     C          -0.16426  
         C25       1.0000    0.53980   0.39890   0.41110   Biso      1.000     C          -0.13708900000000002          
         C26       1.0000    0.70260   0.50390   0.90010   Biso      1.000     C          -0.105147           
         C27       1.0000    0.00000   0.23440   0.85330   Biso      1.000     C          -0.150805           
         C28       1.0000    0.99830   0.76590   0.95890   Biso      1.000     C          0.565921  
         C29       1.0000    0.49630   0.90070   0.26860   Biso      1.000     C          0.189808  
         C30       1.0000    0.01600   0.03270   0.81900   Biso      1.000     C          -0.153435           
         C31       1.0000    0.54040   0.34690   0.20080   Biso      1.000     C          -0.045685           
         C32       1.0000    0.55200   0.74600   0.17920   Biso      1.000     C          -0.15442899999999998          
         C33       1.0000    0.52640   0.09290   0.23150   Biso      1.000     C          0.154865  
         C34       1.0000    0.43550   0.12420   0.02440   Biso      1.000     C          -0.157635           
         C35       1.0000    0.91510   0.72110   0.25970   Biso      1.000     C          -0.154084           
         C36       1.0000    0.74610   0.51200   0.95850   Biso      1.000     C          -0.022193           
         C37       1.0000    0.29740   0.49610   0.09990   Biso      1.000     C          -0.105147           
         C38       1.0000    0.40080   0.95300   0.71740   Biso      1.000     C          -0.15037899999999998          
         C39       1.0000    0.00000   0.76560   0.14670   Biso      1.000     C          -0.150805           
         C40       1.0000    0.65200   0.37650   0.96540   Biso      1.000     C          0.10920099999999999           
         C41       1.0000    0.64830   0.22090   0.15650   Biso      1.000     C          0.11670799999999999           
         C42       1.0000    0.25390   0.48800   0.04150   Biso      1.000     C          -0.022192           
         C43       1.0000    0.02460   0.17090   0.27940   Biso      1.000     C          0.564144  
         C44       1.0000    0.15180   0.16830   0.02680   Biso      1.000     C          -0.019278           
         C45       1.0000    0.53090   0.68220   0.37900   Biso      1.000     C          -0.166403           
         C46       1.0000    0.52310   0.69100   0.13230   Biso      1.000     C          -0.153427           
         C47       1.0000    0.14390   0.08150   0.00520   Biso      1.000     C          -0.10878299999999999          
         C48       1.0000    0.50070   0.64830   0.44370   Biso      1.000     C          -0.177344           
         C49       1.0000    0.67350   0.20930   0.53490   Biso      1.000     C          -0.170819           
         C50       1.0000    0.99840   0.05890   0.19730   Biso      1.000     C          -0.113028           
         C51       1.0000    0.91040   0.61010   0.18030   Biso      1.000     C          -0.057537           
         C52       1.0000    0.35510   0.82350   0.39960   Biso      1.000     C          -0.159397           
         C53       1.0000    0.64980   0.32560   0.74450   Biso      1.000     C          -0.18426800000000002          
         C54       1.0000    0.08960   0.38990   0.81970   Biso      1.000     C          -0.057536000000000004         
         C55       1.0000    0.64490   0.17650   0.60040   Biso      1.000     C          -0.159401           
         C56       1.0000    0.97750   0.92790   0.73960   Biso      1.000     C          -0.033261           
         C57       1.0000    0.48020   0.27330   0.23780   Biso      1.000     C          -0.103672           
         C58       1.0000    0.58530   0.95080   0.30120   Biso      1.000     C          -0.174118           
         C59       1.0000    0.62750   0.41540   0.35120   Biso      1.000     C          -0.029924           
         C60       1.0000    0.45960   0.65310   0.79920   Biso      1.000     C          -0.045685           
         C61       1.0000    0.00160   0.94110   0.80270   Biso      1.000     C          -0.113027           
         C62       1.0000    0.12780   0.48390   0.83590   Biso      1.000     C          0.5737369999999999  
         C63       1.0000    0.53930   0.26020   0.75890   Biso      1.000     C          0.190161  
         C64       1.0000    0.43700   0.04440   0.19790   Biso      1.000     C          -0.14793199999999998          
         C65       1.0000    0.00170   0.23410   0.04110   Biso      1.000     C          0.565921  
         C66       1.0000    0.42830   0.03580   0.00520   Biso      1.000     C          0.08014199999999999           
         C67       1.0000    0.00350   0.11330   0.77330   Biso      1.000     C          0.067608  
         C68       1.0000    0.35170   0.77910   0.84350   Biso      1.000     C          0.11670799999999999           
         C69       1.0000    0.47360   0.90710   0.76850   Biso      1.000     C          0.154871  
         C70       1.0000    0.85610   0.91850   0.99480   Biso      1.000     C          -0.10878299999999999          
         C71       1.0000    0.35020   0.67440   0.25550   Biso      1.000     C          -0.184266           
         C72       1.0000    0.46070   0.73980   0.24110   Biso      1.000     C          0.19016   
         C73       1.0000    0.72240   0.98470   0.00480   Biso      1.000     C          -0.149054           
         C74       1.0000    0.77540   0.31690   0.40670   Biso      1.000     C          0.09072100000000001           
         C75       1.0000    0.50370   0.09930   0.73140   Biso      1.000     C          0.189808  
         C76       1.0000    0.37250   0.58460   0.64880   Biso      1.000     C          -0.029924           
         C77       1.0000    0.59920   0.04700   0.28260   Biso      1.000     C          -0.15037  
         C78       1.0000    0.87220   0.51610   0.16410   Biso      1.000     C          0.5737369999999999  
         C79       1.0000    0.34800   0.62350   0.03460   Biso      1.000     C          0.10920099999999999           
         C80       1.0000    0.39860   0.70150   0.48680   Biso      1.000     C          0.15435   
         C81       1.0000    0.47690   0.30900   0.86770   Biso      1.000     C          -0.153417           
         C82       1.0000    0.11240   0.36700   0.75480   Biso      1.000     C          -0.140276           
         C83       1.0000    0.54380   0.23030   0.64420   Biso      1.000     C          0.194048  
         C84       1.0000    0.02850   0.20910   0.78940   Biso      1.000     C          0.068768  
         C85       1.0000    0.67940   0.38100   0.79170   Biso      1.000     C          -0.161638           
         C86       1.0000    0.60140   0.29850   0.51320   Biso      1.000     C          0.15434   
         C87       1.0000    0.02250   0.07210   0.26040   Biso      1.000     C          -0.033261           
         C88       1.0000    0.49930   0.35170   0.55630   Biso      1.000     C          -0.177333           
         C89       1.0000    0.40580   0.63000   0.14650   Biso      1.000     C          0.15904200000000002           
         C90       1.0000    0.08490   0.27890   0.74030   Biso      1.000     C          -0.154075           
         C91       1.0000    0.96150   0.00780   0.69550   Biso      1.000     C          -0.113293           
         C92       1.0000    0.98400   0.96730   0.18100   Biso      1.000     C          -0.153435           
         C93       1.0000    0.69990   0.81030   0.96380   Biso      1.000     C          -0.108672           
         C94       1.0000    0.41470   0.04920   0.69880   Biso      1.000     C          -0.17411500000000002          
         C95       1.0000    0.51980   0.72670   0.76220   Biso      1.000     C          -0.103671           
         C96       1.0000    0.88760   0.63300   0.24520   Biso      1.000     C          -0.140267           
         H1        1.0000    0.14670   0.41240   0.72110   Biso      1.000     H          0.088647  
         H2        1.0000    0.79050   0.56410   0.96930   Biso      1.000     H          0.12752   
         H3        1.0000    0.36430   0.08050   0.66430   Biso      1.000     H          0.123804  
         H4        1.0000    0.29040   0.82010   0.87210   Biso      1.000     H          0.10550999999999999           
         H5        1.0000    0.03430   0.04030   0.86100   Biso      1.000     H          0.11316400000000001           
         H6        1.0000    0.98740   0.66340   0.08820   Biso      1.000     H          0.11429600000000001           
         H7        1.0000    0.43600   0.42520   0.42540   Biso      1.000     H          0.13085   
         H8        1.0000    0.48640   0.58890   0.79170   Biso      1.000     H          0.10943800000000001           
         H9        1.0000    0.63200   0.78700   0.16970   Biso      1.000     H          0.128589  
         H10       1.0000    0.99180   0.11130   0.16590   Biso      1.000     H          0.110831  
         H11       1.0000    0.04120   0.80920   0.11320   Biso      1.000     H          0.111956  
         H12       1.0000    0.30540   0.88290   0.38490   Biso      1.000     H          0.130227  
         H13       1.0000    0.30990   0.24850   0.05070   Biso      1.000     H          0.112131  
         H14       1.0000    0.56400   0.57480   0.57460   Biso      1.000     H          0.13085   
         H15       1.0000    0.65810   0.08050   0.30480   Biso      1.000     H          0.12845   
         H16       1.0000    0.70960   0.17990   0.12790   Biso      1.000     H          0.10550999999999999           
         H17       1.0000    0.05820   0.99990   0.34630   Biso      1.000     H          0.107052  
         H18       1.0000    0.74050   0.17180   0.50570   Biso      1.000     H          0.135076  
         H19       1.0000    0.96570   0.95970   0.13900   Biso      1.000     H          0.11316400000000001           
         H20       1.0000    0.51360   0.41110   0.20830   Biso      1.000     H          0.10943800000000001           
         H21       1.0000    0.39770   0.35400   0.64970   Biso      1.000     H          0.126388  
         H22       1.0000    0.40580   0.27630   0.27560   Biso      1.000     H          0.117318  
         H23       1.0000    0.95430   0.93360   0.00310   Biso      1.000     H          0.107848  
         H24       1.0000    0.26710   0.95620   0.98150   Biso      1.000     H          0.11293099999999999           
         H25       1.0000    0.89610   0.73530   0.30300   Biso      1.000     H          0.10722000000000001           
         H26       1.0000    0.03820   0.84950   0.32040   Biso      1.000     H          0.105234  
         H27       1.0000    0.58330   0.69530   0.09090   Biso      1.000     H          0.126202  
         H28       1.0000    0.00820   0.88870   0.83410   Biso      1.000     H          0.110831  
         H29       1.0000    0.63570   0.91950   0.33570   Biso      1.000     H          0.123804  
         H30       1.0000    0.01260   0.33660   0.91180   Biso      1.000     H          0.11429600000000001           
         H31       1.0000    0.53480   0.14140   0.02970   Biso      1.000     H          0.10801500000000001           
         H32       1.0000    0.61190   0.92410   0.83690   Biso      1.000     H          0.127127  
         H33       1.0000    0.25950   0.82820   0.49430   Biso      1.000     H          0.135076  
         H34       1.0000    0.36800   0.21300   0.83030   Biso      1.000     H          0.12859   
         H35       1.0000    0.70580   0.33290   0.70240   Biso      1.000     H          0.11828   
         H36       1.0000    0.59130   0.45600   0.31670   Biso      1.000     H          0.119958  
         H37       1.0000    0.69010   0.75150   0.94930   Biso      1.000     H          0.112131  
         H38       1.0000    0.28680   0.45170   0.13660   Biso      1.000     H          0.12321900000000001           
         H39       1.0000    0.75520   0.42460   0.78180   Biso      1.000     H          0.105581  
         H40       1.0000    0.40870   0.54400   0.68330   Biso      1.000     H          0.119958  
         H41       1.0000    0.29420   0.66710   0.29760   Biso      1.000     H          0.118279  
         H42       1.0000    0.95880   0.19080   0.88680   Biso      1.000     H          0.111956  
         H43       1.0000    0.60230   0.64600   0.35030   Biso      1.000     H          0.126388  
         H44       1.0000    0.38810   0.07590   0.16310   Biso      1.000     H          0.127127  
         H45       1.0000    0.59420   0.72370   0.72440   Biso      1.000     H          0.117318  
         H46       1.0000    0.46520   0.85860   0.97030   Biso      1.000     H          0.10801500000000001           
         H47       1.0000    0.20950   0.43590   0.03070   Biso      1.000     H          0.12752   
         H48       1.0000    0.44990   0.41120   0.54160   Biso      1.000     H          0.115075  
         H49       1.0000    0.24480   0.57540   0.21820   Biso      1.000     H          0.105581  
         H50       1.0000    0.71320   0.54830   0.86340   Biso      1.000     H          0.12321900000000001           
         H51       1.0000    0.63890   0.08480   0.80440   Biso      1.000     H          0.124955  
         H52       1.0000    0.73290   0.04380   0.01850   Biso      1.000     H          0.11293099999999999           
         H53       1.0000    0.94180   0.00010   0.65370   Biso      1.000     H          0.107052  
         H54       1.0000    0.34190   0.91950   0.69520   Biso      1.000     H          0.128451  
         H55       1.0000    0.86220   0.27530   0.41900   Biso      1.000     H          0.111223  
         H56       1.0000    0.13780   0.72470   0.58100   Biso      1.000     H          0.111223  
         H57       1.0000    0.10390   0.26470   0.69700   Biso      1.000     H          0.10721900000000001           
         H58       1.0000    0.62010   0.31640   0.98120   Biso      1.000     H          0.103164  
         H59       1.0000    0.96180   0.15050   0.67960   Biso      1.000     H          0.105234  
         H60       1.0000    0.37990   0.68360   0.01880   Biso      1.000     H          0.103164  
         H61       1.0000    0.36110   0.91520   0.19560   Biso      1.000     H          0.124955  
         H62       1.0000    0.41670   0.30470   0.90910   Biso      1.000     H          0.126201  
         H63       1.0000    0.04570   0.06640   0.99690   Biso      1.000     H          0.107848  
         H64       1.0000    0.55010   0.58880   0.45840   Biso      1.000     H          0.115076  
         H65       1.0000    0.85330   0.58760   0.27890   Biso      1.000     H          0.088647  
         H66       1.0000    0.69460   0.11710   0.61510   Biso      1.000     H          0.130227  
         N1        1.0000    0.22520   0.63550   0.65160   Biso      1.000     N          -0.21336599999999997          
         N2        1.0000    0.64860   0.31390   0.14985   Biso      1.000     N          -0.26862800000000003          
         N3        1.0000    0.54880   0.19160   0.20950   Biso      1.000     N          0.021838999999999997          
         N4        1.0000    0.35140   0.68610   0.85015   Biso      1.000     N          -0.268629           
         N5        1.0000    0.63910   0.41720   0.90455   Biso      1.000     N          0.014728  
         N6        1.0000    0.71430   0.43040   0.00018   Biso      1.000     N          -0.279358           
         N7        1.0000    0.36100   0.66550   0.55414   Biso      1.000     N          0.029117  
         N8        1.0000    0.36090   0.58280   0.09545   Biso      1.000     N          0.014727  
         N9        1.0000    0.48340   0.80150   0.28790   Biso      1.000     N          -0.183078           
         N10       1.0000    0.77480   0.36450   0.34840   Biso      1.000     N          -0.213365           
         N11       1.0000    0.45120   0.80840   0.79050   Biso      1.000     N          0.021838999999999997          
         N12       1.0000    0.63900   0.33450   0.44586   Biso      1.000     N          0.029118  
         N13       1.0000    0.51660   0.19850   0.71210   Biso      1.000     N          -0.183079           
         N14       1.0000    0.28570   0.56960   0.99982   Biso      1.000     N          -0.279359           
         O1        1.0000    0.14000   0.55300   0.79267   Biso      1.000     O          -0.516184           
         O2        1.0000    0.05060   0.18240   0.33410   Biso      1.000     O          -0.596226           
         O3        1.0000    0.01410   0.31370   0.06294   Biso      1.000     O          -0.542795           
         O4        1.0000    0.15480   0.48890   0.89296   Biso      1.000     O          -0.523737           
         O5        1.0000    0.98590   0.68630   0.93706   Biso      1.000     O          -0.5427960000000001           
         O6        1.0000    0.87240   0.20950   0.03131   Biso      1.000     O          -0.580996           
         O7        1.0000    0.94940   0.81760   0.66590   Biso      1.000     O          -0.596226           
         O8        1.0000    0.00630   0.75940   0.76320   Biso      1.000     O          -0.5074489999999999           
         O9        1.0000    0.84520   0.51110   0.10704   Biso      1.000     O          -0.523737           
         O10       1.0000    0.86000   0.44700   0.20733   Biso      1.000     O          -0.516184           
         O11       1.0000    0.99370   0.24060   0.23680   Biso      1.000     O          -0.507448           
         O12       1.0000    0.12760   0.79050   0.96869   Biso      1.000     O          -0.580996           
         Zn1       1.0000    0.19760   0.61472   0.91547   Biso      1.000     Zn          0.779175  
         Zn2       1.0000    0.04023   0.63922   0.72366   Biso      1.000     Zn          0.382151  
         Zn3       1.0000    0.80240   0.38528   0.08453   Biso      1.000     Zn          0.779174  
         Zn4       1.0000    0.95977   0.36078   0.27634   Biso      1.000     Zn          0.38214899999999996 