
##########################################################################
#               Crystallographic Information Format file
#               Produced by PyCifRW module
#
#  This is a CIF file.  CIF has been adopted by the International
#  Union of Crystallography as the standard for data archiving and
#  transmission.
#
#  For information on this file format, follow the CIF links at
#  http://www.iucr.org
##########################################################################

data_image0

_cell_length_a                          12.7001
_cell_length_b                          12.7001
_cell_length_c                          12.7001
_cell_angle_alpha                       90
_cell_angle_beta                        90
_cell_angle_gamma                       90
_symmetry_space_group_name_H-M          'P 1'
_symmetry_int_tables_number             1
loop_
  _symmetry_equiv_pos_as_xyz
         'x, y, z' 
loop_
  _atom_site_label
  _atom_site_occupancy
  _atom_site_fract_x
  _atom_site_fract_y
  _atom_site_fract_z
  _atom_site_thermal_displace_type
  _atom_site_B_iso_or_equiv
  _atom_site_type_symbol
  _atom_site_charge
         C1        1.0000    0.72460   0.72460   0.52540   Biso      1.000     C          -0.180602           
         C2        1.0000    0.77540   0.27540   0.97460   Biso      1.000     C          -0.180613           
         C3        1.0000    0.47460   0.77540   0.77540   Biso      1.000     C          -0.171869           
         C4        1.0000    0.27540   0.47460   0.27540   Biso      1.000     C          -0.180618           
         C5        1.0000    0.47460   0.27540   0.27540   Biso      1.000     C          -0.180615           
         C6        1.0000    0.77540   0.77540   0.47460   Biso      1.000     C          -0.171672           
         C7        1.0000    0.27540   0.97460   0.77540   Biso      1.000     C          -0.171866           
         C8        1.0000    0.97460   0.47460   0.97460   Biso      1.000     C          -0.180618           
         C9        1.0000    0.97460   0.97460   0.47460   Biso      1.000     C          -0.171862           
         C10       1.0000    0.77540   0.47460   0.77540   Biso      1.000     C          -0.177553           
         C11       1.0000    0.47460   0.97460   0.97460   Biso      1.000     C          -0.173252           
         C12       1.0000    0.47460   0.47460   0.47460   Biso      1.000     C          -0.177553           
         C13       1.0000    0.97460   0.77540   0.27540   Biso      1.000     C          -0.173249           
         C14       1.0000    0.27540   0.77540   0.97460   Biso      1.000     C          -0.173252           
         C15       1.0000    0.97460   0.27540   0.77540   Biso      1.000     C          -0.177536           
         C16       1.0000    0.77540   0.97460   0.27540   Biso      1.000     C          -0.17325  
         C17       1.0000    0.22460   0.72460   0.02540   Biso      1.000     C          -0.173044           
         C18       1.0000    0.27540   0.27540   0.47460   Biso      1.000     C          -0.177537           
         C19       1.0000    0.52540   0.22460   0.22460   Biso      1.000     C          -0.171656           
         C20       1.0000    0.02540   0.22460   0.72460   Biso      1.000     C          -0.177358           
         C21       1.0000    0.02540   0.52540   0.02540   Biso      1.000     C          -0.171662           
         C22       1.0000    0.72460   0.22460   0.02540   Biso      1.000     C          -0.171656           
         C23       1.0000    0.72460   0.02540   0.22460   Biso      1.000     C          -0.173041           
         C24       1.0000    0.52540   0.52540   0.52540   Biso      1.000     C          -0.177354           
         C25       1.0000    0.52540   0.72460   0.72460   Biso      1.000     C          -0.180411           
         C26       1.0000    0.22460   0.52540   0.22460   Biso      1.000     C          -0.17166  
         C27       1.0000    0.02540   0.02540   0.52540   Biso      1.000     C          -0.180417           
         C28       1.0000    0.52540   0.02540   0.02540   Biso      1.000     C          -0.17304  
         C29       1.0000    0.72460   0.52540   0.72460   Biso      1.000     C          -0.177356           
         C30       1.0000    0.22460   0.22460   0.52540   Biso      1.000     C          -0.177358           
         C31       1.0000    0.22460   0.02540   0.72460   Biso      1.000     C          -0.180418           
         C32       1.0000    0.02540   0.72460   0.22460   Biso      1.000     C          -0.173045           
         Cd1       1.0000    0.37500   0.37500   0.37500   Biso      1.000     Cd          0.70899   
         Cd2       1.0000    0.37500   0.87500   0.87500   Biso      1.000     Cd          0.696865  
         Cd3       1.0000    0.87500   0.37500   0.87500   Biso      1.000     Cd          0.708989  
         Cd4       1.0000    0.87500   0.87500   0.37500   Biso      1.000     Cd          0.696839  
         Cd5       1.0000    0.62500   0.62500   0.62500   Biso      1.000     Cd          0.708906  
         Cd6       1.0000    0.12500   0.12500   0.62500   Biso      1.000     Cd          0.708891  
         Cd7       1.0000    0.12500   0.62500   0.12500   Biso      1.000     Cd          0.696763  
         Cd8       1.0000    0.62500   0.12500   0.12500   Biso      1.000     Cd          0.696753 