
##########################################################################
#               Crystallographic Information Format file
#               Produced by PyCifRW module
#
#  This is a CIF file.  CIF has been adopted by the International
#  Union of Crystallography as the standard for data archiving and
#  transmission.
#
#  For information on this file format, follow the CIF links at
#  http://www.iucr.org
##########################################################################

data_image0

_cell_length_a                          12.6798
_cell_length_b                          12.6798
_cell_length_c                          12.6798
_cell_angle_alpha                       90
_cell_angle_beta                        90
_cell_angle_gamma                       90
_symmetry_space_group_name_H-M          'P 1'
_symmetry_int_tables_number             1
loop_
  _symmetry_equiv_pos_as_xyz
         'x, y, z' 
loop_
  _atom_site_label
  _atom_site_occupancy
  _atom_site_fract_x
  _atom_site_fract_y
  _atom_site_fract_z
  _atom_site_thermal_displace_type
  _atom_site_B_iso_or_equiv
  _atom_site_type_symbol
  _atom_site_charge
         C1        1.0000    0.72410   0.72410   0.52590   Biso      1.000     C          -0.175861           
         C2        1.0000    0.77590   0.27590   0.97410   Biso      1.000     C          -0.1769   
         C3        1.0000    0.47410   0.77590   0.77590   Biso      1.000     C          -0.170944           
         C4        1.0000    0.27590   0.47410   0.27590   Biso      1.000     C          -0.172434           
         C5        1.0000    0.47410   0.27590   0.27590   Biso      1.000     C          -0.172625           
         C6        1.0000    0.77590   0.77590   0.47410   Biso      1.000     C          -0.177713           
         C7        1.0000    0.27590   0.97410   0.77590   Biso      1.000     C          -0.17084  
         C8        1.0000    0.97410   0.47410   0.97410   Biso      1.000     C          -0.175907           
         C9        1.0000    0.97410   0.97410   0.47410   Biso      1.000     C          -0.179024           
         C10       1.0000    0.77590   0.47410   0.77590   Biso      1.000     C          -0.175903           
         C11       1.0000    0.47410   0.97410   0.97410   Biso      1.000     C          -0.17084  
         C12       1.0000    0.47410   0.47410   0.47410   Biso      1.000     C          -0.172433           
         C13       1.0000    0.97410   0.77590   0.27590   Biso      1.000     C          -0.177882           
         C14       1.0000    0.27590   0.77590   0.97410   Biso      1.000     C          -0.17094  
         C15       1.0000    0.97410   0.27590   0.77590   Biso      1.000     C          -0.1769   
         C16       1.0000    0.77590   0.97410   0.27590   Biso      1.000     C          -0.179025           
         C17       1.0000    0.22410   0.72410   0.02590   Biso      1.000     C          -0.178143           
         C18       1.0000    0.27590   0.27590   0.47410   Biso      1.000     C          -0.172625           
         C19       1.0000    0.52590   0.22410   0.22410   Biso      1.000     C          -0.171532           
         C20       1.0000    0.02590   0.22410   0.72410   Biso      1.000     C          -0.171411           
         C21       1.0000    0.02590   0.52590   0.02590   Biso      1.000     C          -0.177664           
         C22       1.0000    0.72410   0.22410   0.02590   Biso      1.000     C          -0.171406           
         C23       1.0000    0.72410   0.02590   0.22410   Biso      1.000     C          -0.17092  
         C24       1.0000    0.52590   0.52590   0.52590   Biso      1.000     C          -0.178425           
         C25       1.0000    0.52590   0.72410   0.72410   Biso      1.000     C          -0.178151           
         C26       1.0000    0.22410   0.52590   0.22410   Biso      1.000     C          -0.178419           
         C27       1.0000    0.02590   0.02590   0.52590   Biso      1.000     C          -0.170922           
         C28       1.0000    0.52590   0.02590   0.02590   Biso      1.000     C          -0.171227           
         C29       1.0000    0.72410   0.52590   0.72410   Biso      1.000     C          -0.177669           
         C30       1.0000    0.22410   0.22410   0.52590   Biso      1.000     C          -0.171534           
         C31       1.0000    0.22410   0.02590   0.72410   Biso      1.000     C          -0.171228           
         C32       1.0000    0.02590   0.72410   0.22410   Biso      1.000     C          -0.175695           
         Cd1       1.0000    0.37500   0.37500   0.37500   Biso      1.000     Cd          0.694056  
         Cd2       1.0000    0.37500   0.87500   0.87500   Biso      1.000     Cd          0.690633  
         Cd3       1.0000    0.87500   0.37500   0.87500   Biso      1.000     Cd          0.701605  
         Cd4       1.0000    0.87500   0.87500   0.37500   Biso      1.000     Cd          0.705338  
         Cd5       1.0000    0.62500   0.62500   0.62500   Biso      1.000     Cd          0.704074  
         Cd6       1.0000    0.12500   0.12500   0.62500   Biso      1.000     Cd          0.691698  
         Cd7       1.0000    0.12500   0.62500   0.12500   Biso      1.000     Cd          0.704047  
         Cd8       1.0000    0.62500   0.12500   0.12500   Biso      1.000     Cd          0.69169 