
##########################################################################
#               Crystallographic Information Format file
#               Produced by PyCifRW module
#
#  This is a CIF file.  CIF has been adopted by the International
#  Union of Crystallography as the standard for data archiving and
#  transmission.
#
#  For information on this file format, follow the CIF links at
#  http://www.iucr.org
##########################################################################

data_image0

_cell_length_a                          12.6909
_cell_length_b                          12.6909
_cell_length_c                          12.6909
_cell_angle_alpha                       90
_cell_angle_beta                        90
_cell_angle_gamma                       90
_symmetry_space_group_name_H-M          'P 1'
_symmetry_int_tables_number             1
loop_
  _symmetry_equiv_pos_as_xyz
         'x, y, z' 
loop_
  _atom_site_label
  _atom_site_occupancy
  _atom_site_fract_x
  _atom_site_fract_y
  _atom_site_fract_z
  _atom_site_thermal_displace_type
  _atom_site_B_iso_or_equiv
  _atom_site_type_symbol
  _atom_site_charge
         C1        1.0000    0.72260   0.72260   0.52740   Biso      1.000     C          -0.163176           
         C2        1.0000    0.77740   0.27740   0.97260   Biso      1.000     C          -0.160842           
         C3        1.0000    0.47260   0.77740   0.77740   Biso      1.000     C          -0.159921           
         C4        1.0000    0.27740   0.47260   0.27740   Biso      1.000     C          -0.164021           
         C5        1.0000    0.47260   0.27740   0.27740   Biso      1.000     C          -0.17074  
         C6        1.0000    0.77740   0.77740   0.47260   Biso      1.000     C          -0.159746           
         C7        1.0000    0.27740   0.97260   0.77740   Biso      1.000     C          -0.159461           
         C8        1.0000    0.97260   0.47260   0.97260   Biso      1.000     C          -0.163196           
         C9        1.0000    0.97260   0.97260   0.47260   Biso      1.000     C          -0.156835           
         C10       1.0000    0.77740   0.47260   0.77740   Biso      1.000     C          -0.170753           
         C11       1.0000    0.47260   0.97260   0.97260   Biso      1.000     C          -0.159895           
         C12       1.0000    0.47260   0.47260   0.47260   Biso      1.000     C          -0.160823           
         C13       1.0000    0.97260   0.77740   0.27740   Biso      1.000     C          -0.15946  
         C14       1.0000    0.27740   0.77740   0.97260   Biso      1.000     C          -0.156842           
         C15       1.0000    0.97260   0.27740   0.77740   Biso      1.000     C          -0.164017           
         C16       1.0000    0.77740   0.97260   0.27740   Biso      1.000     C          -0.159941           
         C17       1.0000    0.22260   0.72260   0.02740   Biso      1.000     C          -0.156677           
         C18       1.0000    0.27740   0.27740   0.47260   Biso      1.000     C          -0.163184           
         C19       1.0000    0.52740   0.22260   0.22260   Biso      1.000     C          -0.17059  
         C20       1.0000    0.02740   0.22260   0.72260   Biso      1.000     C          -0.159783           
         C21       1.0000    0.02740   0.52740   0.02740   Biso      1.000     C          -0.159746           
         C22       1.0000    0.72260   0.22260   0.02740   Biso      1.000     C          -0.16069  
         C23       1.0000    0.72260   0.02740   0.22260   Biso      1.000     C          -0.16387  
         C24       1.0000    0.52740   0.52740   0.52740   Biso      1.000     C          -0.160663           
         C25       1.0000    0.52740   0.72260   0.72260   Biso      1.000     C          -0.163847           
         C26       1.0000    0.22260   0.52740   0.22260   Biso      1.000     C          -0.159781           
         C27       1.0000    0.02740   0.02740   0.52740   Biso      1.000     C          -0.156686           
         C28       1.0000    0.52740   0.02740   0.02740   Biso      1.000     C          -0.163038           
         C29       1.0000    0.72260   0.52740   0.72260   Biso      1.000     C          -0.170603           
         C30       1.0000    0.22260   0.22260   0.52740   Biso      1.000     C          -0.159727           
         C31       1.0000    0.22260   0.02740   0.72260   Biso      1.000     C          -0.159308           
         C32       1.0000    0.02740   0.72260   0.22260   Biso      1.000     C          -0.159308           
         Cd1       1.0000    0.37500   0.37500   0.37500   Biso      1.000     Cd          0.652744  
         Cd2       1.0000    0.37500   0.87500   0.87500   Biso      1.000     Cd          0.641618  
         Cd3       1.0000    0.87500   0.37500   0.87500   Biso      1.000     Cd          0.652775  
         Cd4       1.0000    0.87500   0.87500   0.37500   Biso      1.000     Cd          0.6416    
         Cd5       1.0000    0.62500   0.62500   0.62500   Biso      1.000     Cd          0.652681  
         Cd6       1.0000    0.12500   0.12500   0.62500   Biso      1.000     Cd          0.641535  
         Cd7       1.0000    0.12500   0.62500   0.12500   Biso      1.000     Cd          0.641533  
         Cd8       1.0000    0.62500   0.12500   0.12500   Biso      1.000     Cd          0.652684 