
##########################################################################
#               Crystallographic Information Format file
#               Produced by PyCifRW module
#
#  This is a CIF file.  CIF has been adopted by the International
#  Union of Crystallography as the standard for data archiving and
#  transmission.
#
#  For information on this file format, follow the CIF links at
#  http://www.iucr.org
##########################################################################

data_image0

_cell_length_a                          8.821
_cell_length_b                          9.288
_cell_length_c                          18.955
_cell_angle_alpha                       90
_cell_angle_beta                        90
_cell_angle_gamma                       109.557
_symmetry_space_group_name_H-M          'P 1'
_symmetry_int_tables_number             1
loop_
  _symmetry_equiv_pos_as_xyz
         'x, y, z' 
loop_
  _atom_site_label
  _atom_site_occupancy
  _atom_site_fract_x
  _atom_site_fract_y
  _atom_site_fract_z
  _atom_site_thermal_displace_type
  _atom_site_B_iso_or_equiv
  _atom_site_type_symbol
  _atom_site_charge
         C1        1.0000    0.60560   0.25510   0.45110   Biso      1.000     C          0.569022  
         C2        1.0000    0.41760   0.83780   0.25730   Biso      1.000     C          0.003035  
         C3        1.0000    0.22840   0.22500   0.36110   Biso      1.000     C          -0.060341           
         C4        1.0000    0.27590   0.71450   0.26390   Biso      1.000     C          -0.10611400000000001          
         C5        1.0000    0.81810   0.84020   0.70550   Biso      1.000     C          -0.080821           
         C6        1.0000    0.44490   0.11170   0.97420   Biso      1.000     C          -0.005725           
         C7        1.0000    0.27590   0.21450   0.23610   Biso      1.000     C          -0.106124           
         C8        1.0000    0.62120   0.46540   0.53560   Biso      1.000     C          -0.159706           
         C9        1.0000    0.46570   0.40130   0.30890   Biso      1.000     C          -0.150544           
         C10       1.0000    0.39440   0.24490   0.95110   Biso      1.000     C          0.5690189999999999  
         C11       1.0000    0.11630   0.16050   0.42260   Biso      1.000     C          0.622002  
         C12       1.0000    0.55510   0.88830   0.02580   Biso      1.000     C          -0.005726           
         C13       1.0000    0.37350   0.84560   0.13240   Biso      1.000     C          0.051051  
         C14       1.0000    0.43370   0.92180   0.06190   Biso      1.000     C          0.09031499999999999           
         C15       1.0000    0.62120   0.96540   0.96440   Biso      1.000     C          -0.15970299999999998          
         C16       1.0000    0.18190   0.65980   0.20550   Biso      1.000     C          -0.080817           
         C17       1.0000    0.72410   0.78550   0.76390   Biso      1.000     C          -0.10611500000000001          
         C18       1.0000    0.81810   0.34020   0.79450   Biso      1.000     C          -0.080814           
         C19       1.0000    0.44490   0.61170   0.52580   Biso      1.000     C          -0.005724           
         C20       1.0000    0.88370   0.33950   0.92260   Biso      1.000     C          0.621996  
         C21       1.0000    0.77160   0.77500   0.63890   Biso      1.000     C          -0.060341           
         C22       1.0000    0.51770   0.40050   0.17810   Biso      1.000     C          0.548076  
         C23       1.0000    0.56630   0.07820   0.93810   Biso      1.000     C          0.090316  
         C24       1.0000    0.58240   0.16220   0.74270   Biso      1.000     C          0.003045  
         C25       1.0000    0.53430   0.09870   0.80890   Biso      1.000     C          -0.15054  
         C26       1.0000    0.37350   0.34560   0.36760   Biso      1.000     C          0.051052  
         C27       1.0000    0.58240   0.66220   0.75730   Biso      1.000     C          0.003042  
         C28       1.0000    0.88370   0.83950   0.57740   Biso      1.000     C          0.6220100000000001  
         C29       1.0000    0.55510   0.38830   0.47420   Biso      1.000     C          -0.005724           
         C30       1.0000    0.41760   0.33780   0.24270   Biso      1.000     C          0.003042  
         C31       1.0000    0.18190   0.15980   0.29450   Biso      1.000     C          -0.080809           
         C32       1.0000    0.53430   0.59870   0.69110   Biso      1.000     C          -0.150543           
         C33       1.0000    0.46570   0.90130   0.19110   Biso      1.000     C          -0.150539           
         C34       1.0000    0.56630   0.57820   0.56190   Biso      1.000     C          0.090318  
         C35       1.0000    0.51770   0.90050   0.32190   Biso      1.000     C          0.548056  
         C36       1.0000    0.43370   0.42180   0.43810   Biso      1.000     C          0.090318  
         C37       1.0000    0.62650   0.65440   0.63240   Biso      1.000     C          0.051051  
         C38       1.0000    0.22840   0.72500   0.13890   Biso      1.000     C          -0.060346000000000004         
         C39       1.0000    0.48230   0.09950   0.67810   Biso      1.000     C          0.5480649999999999  
         C40       1.0000    0.11630   0.66050   0.07740   Biso      1.000     C          0.622016  
         C41       1.0000    0.77160   0.27500   0.86110   Biso      1.000     C          -0.060333000000000005         
         C42       1.0000    0.62650   0.15440   0.86760   Biso      1.000     C          0.051049000000000004          
         C43       1.0000    0.37880   0.53460   0.46440   Biso      1.000     C          -0.15970299999999998          
         C44       1.0000    0.60560   0.75510   0.04890   Biso      1.000     C          0.569021  
         C45       1.0000    0.72410   0.28550   0.73610   Biso      1.000     C          -0.106118           
         C46       1.0000    0.39440   0.74490   0.54890   Biso      1.000     C          0.569023  
         C47       1.0000    0.37880   0.03460   0.03560   Biso      1.000     C          -0.15970299999999998          
         C48       1.0000    0.48230   0.59950   0.82190   Biso      1.000     C          0.548038  
         Eu1       1.0000    0.28973   0.51552   0.94679   Biso      1.000     Eu          1.3905530000000002  
         Eu2       1.0000    0.71027   0.98448   0.44679   Biso      1.000     Eu          1.3905610000000002  
         Eu3       1.0000    0.28973   0.01552   0.55321   Biso      1.000     Eu          1.390562  
         Eu4       1.0000    0.71027   0.48448   0.05321   Biso      1.000     Eu          1.3905530000000002  
         H1        1.0000    0.08610   0.57850   0.21030   Biso      1.000     H          0.12775   
         H2        1.0000    0.29770   0.05860   0.05900   Biso      1.000     H          0.142019  
         H3        1.0000    0.24480   0.66910   0.30770   Biso      1.000     H          0.12371300000000002           
         H4        1.0000    0.70230   0.44140   0.55900   Biso      1.000     H          0.142021  
         H5        1.0000    0.56160   0.98260   0.18650   Biso      1.000     H          0.13285999999999998           
         H6        1.0000    0.29770   0.55860   0.44100   Biso      1.000     H          0.142022  
         H7        1.0000    0.91390   0.42150   0.78970   Biso      1.000     H          0.127746  
         H8        1.0000    0.91390   0.92150   0.71030   Biso      1.000     H          0.127746  
         H9        1.0000    0.70230   0.94140   0.94100   Biso      1.000     H          0.14202   
         H10       1.0000    0.75520   0.33090   0.69230   Biso      1.000     H          0.12371099999999999           
         H11       1.0000    0.43840   0.51740   0.68650   Biso      1.000     H          0.132857  
         H12       1.0000    0.24480   0.16910   0.19230   Biso      1.000     H          0.123708  
         H13       1.0000    0.43840   0.01740   0.81350   Biso      1.000     H          0.132856  
         H14       1.0000    0.56160   0.48260   0.31350   Biso      1.000     H          0.132856  
         H15       1.0000    0.75520   0.83090   0.80770   Biso      1.000     H          0.12370899999999999           
         H16       1.0000    0.08610   0.07850   0.28970   Biso      1.000     H          0.127745  
         O1        1.0000    0.82500   0.83840   0.51700   Biso      1.000     O          -0.586966           
         O2        1.0000    0.03110   0.38710   0.90850   Biso      1.000     O          -0.544809           
         O3        1.0000    0.26090   0.72770   0.57490   Biso      1.000     O          -0.464966           
         O4        1.0000    0.96890   0.11290   0.40850   Biso      1.000     O          -0.544813           
         O5        1.0000    0.73910   0.27230   0.42510   Biso      1.000     O          -0.46496400000000004          
         O6        1.0000    0.34810   0.49740   0.81720   Biso      1.000     O          -0.495558           
         O7        1.0000    0.65190   0.50260   0.18280   Biso      1.000     O          -0.495587           
         O8        1.0000    0.50570   0.62120   0.03620   Biso      1.000     O          -0.602282           
         O9        1.0000    0.49430   0.37880   0.96380   Biso      1.000     O          -0.602279           
         O10       1.0000    0.65190   0.00260   0.31720   Biso      1.000     O          -0.495579           
         O11       1.0000    0.82500   0.33840   0.98300   Biso      1.000     O          -0.586964           
         O12       1.0000    0.73910   0.77230   0.07490   Biso      1.000     O          -0.464962           
         O13       1.0000    0.46280   0.34480   0.11871   Biso      1.000     O          -0.542552           
         O14       1.0000    0.34810   0.99740   0.68280   Biso      1.000     O          -0.49558199999999997          
         O15       1.0000    0.96890   0.61290   0.09150   Biso      1.000     O          -0.544812           
         O16       1.0000    0.17500   0.16160   0.48300   Biso      1.000     O          -0.586965           
         O17       1.0000    0.17500   0.66160   0.01700   Biso      1.000     O          -0.586964           
         O18       1.0000    0.46280   0.84480   0.38129   Biso      1.000     O          -0.542549           
         O19       1.0000    0.53720   0.15520   0.61871   Biso      1.000     O          -0.542552           
         O20       1.0000    0.53720   0.65520   0.88129   Biso      1.000     O          -0.542531           
         O21       1.0000    0.26090   0.22770   0.92510   Biso      1.000     O          -0.46496099999999996          
         O22       1.0000    0.49430   0.87880   0.53620   Biso      1.000     O          -0.60228  
         O23       1.0000    0.50570   0.12120   0.46380   Biso      1.000     O          -0.6022770000000001           
         O24       1.0000    0.03110   0.88710   0.59150   Biso      1.000     O          -0.544821 