
##########################################################################
#               Crystallographic Information Format file
#               Produced by PyCifRW module
#
#  This is a CIF file.  CIF has been adopted by the International
#  Union of Crystallography as the standard for data archiving and
#  transmission.
#
#  For information on this file format, follow the CIF links at
#  http://www.iucr.org
##########################################################################

data_image0

_cell_length_a                          8.728
_cell_length_b                          9.289
_cell_length_c                          18.911
_cell_angle_alpha                       90
_cell_angle_beta                        90
_cell_angle_gamma                       109.307
_symmetry_space_group_name_H-M          'P 1'
_symmetry_int_tables_number             1
loop_
  _symmetry_equiv_pos_as_xyz
         'x, y, z' 
loop_
  _atom_site_label
  _atom_site_occupancy
  _atom_site_fract_x
  _atom_site_fract_y
  _atom_site_fract_z
  _atom_site_thermal_displace_type
  _atom_site_B_iso_or_equiv
  _atom_site_type_symbol
  _atom_site_charge
         C1        1.0000    0.12840   0.15520   0.63240   Biso      1.000     C          0.06880700000000001           
         C2        1.0000    0.31840   0.84040   0.79470   Biso      1.000     C          -0.087263           
         C3        1.0000    0.72710   0.72490   0.36130   Biso      1.000     C          -0.075975           
         C4        1.0000    0.96470   0.40300   0.19190   Biso      1.000     C          -0.152945           
         C5        1.0000    0.89510   0.74550   0.95210   Biso      1.000     C          0.634915  
         C6        1.0000    0.98340   0.09910   0.82270   Biso      1.000     C          0.5845819999999999  
         C7        1.0000    0.68160   0.65960   0.29470   Biso      1.000     C          -0.087263           
         C8        1.0000    0.06600   0.57760   0.93760   Biso      1.000     C          0.054673  
         C9        1.0000    0.27290   0.77510   0.86130   Biso      1.000     C          -0.075975           
         C10       1.0000    0.91740   0.83960   0.24230   Biso      1.000     C          0.009247  
         C11       1.0000    0.91740   0.33960   0.25770   Biso      1.000     C          0.00925   
         C12       1.0000    0.12140   0.96430   0.53620   Biso      1.000     C          -0.160146           
         C13       1.0000    0.10490   0.25450   0.04790   Biso      1.000     C          0.634915  
         C14       1.0000    0.10490   0.75450   0.45210   Biso      1.000     C          0.634915  
         C15       1.0000    0.22490   0.78580   0.73570   Biso      1.000     C          -0.108574           
         C16       1.0000    0.12140   0.46430   0.96380   Biso      1.000     C          -0.160145           
         C17       1.0000    0.05470   0.88610   0.47440   Biso      1.000     C          -0.068846           
         C18       1.0000    0.87160   0.84480   0.36760   Biso      1.000     C          0.06880800000000001           
         C19       1.0000    0.87160   0.34480   0.13240   Biso      1.000     C          0.06880800000000001           
         C20       1.0000    0.05470   0.38610   0.02560   Biso      1.000     C          -0.068846           
         C21       1.0000    0.22490   0.28580   0.76430   Biso      1.000     C          -0.10857699999999999          
         C22       1.0000    0.96470   0.90300   0.30810   Biso      1.000     C          -0.152942           
         C23       1.0000    0.89510   0.24550   0.54790   Biso      1.000     C          0.634915  
         C24       1.0000    0.01660   0.40090   0.32270   Biso      1.000     C          0.5845819999999999  
         C25       1.0000    0.38400   0.34100   0.57690   Biso      1.000     C          0.700274  
         C26       1.0000    0.94530   0.11390   0.52560   Biso      1.000     C          -0.068846           
         C27       1.0000    0.61600   0.65900   0.42310   Biso      1.000     C          0.700275  
         C28       1.0000    0.77510   0.21420   0.26430   Biso      1.000     C          -0.10857699999999999          
         C29       1.0000    0.87860   0.53570   0.03620   Biso      1.000     C          -0.160146           
         C30       1.0000    0.98340   0.59910   0.67730   Biso      1.000     C          0.5845819999999999  
         C31       1.0000    0.87860   0.03570   0.46380   Biso      1.000     C          -0.160146           
         C32       1.0000    0.08260   0.16040   0.75770   Biso      1.000     C          0.009247  
         C33       1.0000    0.68160   0.15960   0.20530   Biso      1.000     C          -0.087259           
         C34       1.0000    0.31840   0.34040   0.70530   Biso      1.000     C          -0.087259           
         C35       1.0000    0.77510   0.71420   0.23570   Biso      1.000     C          -0.108574           
         C36       1.0000    0.12840   0.65520   0.86760   Biso      1.000     C          0.06880800000000001           
         C37       1.0000    0.72710   0.22490   0.13870   Biso      1.000     C          -0.075974           
         C38       1.0000    0.93400   0.92240   0.43760   Biso      1.000     C          0.054674  
         C39       1.0000    0.94530   0.61390   0.97440   Biso      1.000     C          -0.068846           
         C40       1.0000    0.03530   0.09700   0.69190   Biso      1.000     C          -0.152942           
         C41       1.0000    0.27290   0.27510   0.63870   Biso      1.000     C          -0.075974           
         C42       1.0000    0.03530   0.59700   0.80810   Biso      1.000     C          -0.152945           
         C43       1.0000    0.93400   0.42240   0.06240   Biso      1.000     C          0.054674  
         C44       1.0000    0.06600   0.07760   0.56240   Biso      1.000     C          0.054674  
         C45       1.0000    0.38400   0.84100   0.92310   Biso      1.000     C          0.700275  
         C46       1.0000    0.08260   0.66040   0.74230   Biso      1.000     C          0.009249  
         C47       1.0000    0.61600   0.15900   0.07690   Biso      1.000     C          0.700274  
         C48       1.0000    0.01660   0.90090   0.17730   Biso      1.000     C          0.5845819999999999  
         H1        1.0000    0.79680   0.05970   0.44020   Biso      1.000     H          0.136019  
         H2        1.0000    0.05990   0.98560   0.31270   Biso      1.000     H          0.13405699999999998           
         H3        1.0000    0.58600   0.57740   0.29020   Biso      1.000     H          0.125048  
         H4        1.0000    0.74400   0.66820   0.19190   Biso      1.000     H          0.125281  
         H5        1.0000    0.41400   0.92260   0.79020   Biso      1.000     H          0.125048  
         H6        1.0000    0.79680   0.55970   0.05980   Biso      1.000     H          0.136019  
         H7        1.0000    0.25600   0.83180   0.69190   Biso      1.000     H          0.125281  
         H8        1.0000    0.58600   0.07740   0.20980   Biso      1.000     H          0.125047  
         H9        1.0000    0.94010   0.01440   0.68730   Biso      1.000     H          0.13405699999999998           
         H10       1.0000    0.94010   0.51440   0.81270   Biso      1.000     H          0.13405799999999998           
         H11       1.0000    0.25600   0.33180   0.80810   Biso      1.000     H          0.125282  
         H12       1.0000    0.05990   0.48560   0.18730   Biso      1.000     H          0.13405799999999998           
         H13       1.0000    0.20320   0.94030   0.55980   Biso      1.000     H          0.136019  
         H14       1.0000    0.74400   0.16820   0.30810   Biso      1.000     H          0.125281  
         H15       1.0000    0.41400   0.42260   0.70980   Biso      1.000     H          0.125047  
         H16       1.0000    0.20320   0.44030   0.94020   Biso      1.000     H          0.136019  
         O1        1.0000    0.23960   0.27080   0.07520   Biso      1.000     O          -0.567642           
         O2        1.0000    0.99400   0.37940   0.53540   Biso      1.000     O          -0.7578779999999999           
         O3        1.0000    0.15240   0.50440   0.31810   Biso      1.000     O          -0.619649           
         O4        1.0000    0.76040   0.22920   0.57520   Biso      1.000     O          -0.567642           
         O5        1.0000    0.84760   0.99560   0.81810   Biso      1.000     O          -0.619649           
         O6        1.0000    0.32510   0.83970   0.98330   Biso      1.000     O          -0.723288           
         O7        1.0000    0.53280   0.39150   0.59100   Biso      1.000     O          -0.683955           
         O8        1.0000    0.03790   0.15450   0.88200   Biso      1.000     O          -0.66692  
         O9        1.0000    0.53280   0.89150   0.90900   Biso      1.000     O          -0.683955           
         O10       1.0000    0.76040   0.72920   0.92480   Biso      1.000     O          -0.567642           
         O11       1.0000    0.99400   0.87940   0.96460   Biso      1.000     O          -0.7578779999999999           
         O12       1.0000    0.46720   0.60850   0.40900   Biso      1.000     O          -0.683955           
         O13       1.0000    0.00600   0.62060   0.46460   Biso      1.000     O          -0.7578779999999999           
         O14       1.0000    0.46720   0.10850   0.09100   Biso      1.000     O          -0.683955           
         O15       1.0000    0.67490   0.66030   0.48330   Biso      1.000     O          -0.723288           
         O16       1.0000    0.67490   0.16030   0.01670   Biso      1.000     O          -0.723288           
         O17       1.0000    0.96210   0.84550   0.11800   Biso      1.000     O          -0.66692  
         O18       1.0000    0.00600   0.12060   0.03540   Biso      1.000     O          -0.7578779999999999           
         O19       1.0000    0.96210   0.34550   0.38200   Biso      1.000     O          -0.66692  
         O20       1.0000    0.84760   0.49560   0.68190   Biso      1.000     O          -0.619649           
         O21       1.0000    0.23960   0.77080   0.42480   Biso      1.000     O          -0.567642           
         O22       1.0000    0.15240   0.00440   0.18190   Biso      1.000     O          -0.619649           
         O23       1.0000    0.32510   0.33970   0.51670   Biso      1.000     O          -0.723288           
         O24       1.0000    0.03790   0.65450   0.61800   Biso      1.000     O          -0.66692  
         Tb1       1.0000    0.79058   0.01606   0.94684   Biso      1.000     Tb          2.100172  
         Tb2       1.0000    0.20942   0.98394   0.05316   Biso      1.000     Tb          2.100172  
         Tb3       1.0000    0.79058   0.51606   0.55316   Biso      1.000     Tb          2.100172  
         Tb4       1.0000    0.20942   0.48394   0.44684   Biso      1.000     Tb          2.100172 