
##########################################################################
#               Crystallographic Information Format file
#               Produced by PyCifRW module
#
#  This is a CIF file.  CIF has been adopted by the International
#  Union of Crystallography as the standard for data archiving and
#  transmission.
#
#  For information on this file format, follow the CIF links at
#  http://www.iucr.org
##########################################################################

data_image0

_cell_length_a                          8.783
_cell_length_b                          9.285
_cell_length_c                          18.952
_cell_angle_alpha                       90
_cell_angle_beta                        90
_cell_angle_gamma                       109.398
_symmetry_space_group_name_H-M          'P 1'
_symmetry_int_tables_number             1
loop_
  _symmetry_equiv_pos_as_xyz
         'x, y, z' 
loop_
  _atom_site_label
  _atom_site_occupancy
  _atom_site_fract_x
  _atom_site_fract_y
  _atom_site_fract_z
  _atom_site_thermal_displace_type
  _atom_site_B_iso_or_equiv
  _atom_site_type_symbol
  _atom_site_charge
         C1        1.0000    0.77650   0.71410   0.76430   Biso      1.000     C          -0.10336500000000001          
         C2        1.0000    0.72780   0.72480   0.63900   Biso      1.000     C          -0.07413099999999999          
         C3        1.0000    0.94390   0.61300   0.02590   Biso      1.000     C          -0.067844           
         C4        1.0000    0.12030   0.46530   0.03540   Biso      1.000     C          -0.15897999999999998          
         C5        1.0000    0.22350   0.78590   0.26430   Biso      1.000     C          -0.10336500000000001          
         C6        1.0000    0.68350   0.65790   0.70510   Biso      1.000     C          -0.089358           
         C7        1.0000    0.27220   0.77520   0.13900   Biso      1.000     C          -0.07413099999999999          
         C8        1.0000    0.06730   0.07850   0.43740   Biso      1.000     C          0.055997000000000005          
         C9        1.0000    0.91730   0.33860   0.74240   Biso      1.000     C          0.00455   
         C10       1.0000    0.91730   0.83860   0.75760   Biso      1.000     C          0.00455   
         C11       1.0000    0.01780   0.40060   0.67820   Biso      1.000     C          0.587903  
         C12       1.0000    0.89630   0.74490   0.04860   Biso      1.000     C          0.635234  
         C13       1.0000    0.31650   0.34210   0.29490   Biso      1.000     C          -0.08936000000000001          
         C14       1.0000    0.12780   0.65510   0.13160   Biso      1.000     C          0.067319  
         C15       1.0000    0.87220   0.84490   0.63160   Biso      1.000     C          0.067319  
         C16       1.0000    0.87970   0.03470   0.53540   Biso      1.000     C          -0.15897999999999998          
         C17       1.0000    0.05610   0.38700   0.97410   Biso      1.000     C          -0.067843           
         C18       1.0000    0.08270   0.16140   0.24240   Biso      1.000     C          0.004549  
         C19       1.0000    0.96580   0.40220   0.80850   Biso      1.000     C          -0.153927           
         C20       1.0000    0.94390   0.11300   0.47410   Biso      1.000     C          -0.067843           
         C21       1.0000    0.87970   0.53470   0.96460   Biso      1.000     C          -0.158979           
         C22       1.0000    0.96580   0.90220   0.69150   Biso      1.000     C          -0.153927           
         C23       1.0000    0.68350   0.15790   0.79490   Biso      1.000     C          -0.08936000000000001          
         C24       1.0000    0.38360   0.84000   0.07740   Biso      1.000     C          0.689248  
         C25       1.0000    0.22350   0.28590   0.23570   Biso      1.000     C          -0.10336300000000001          
         C26       1.0000    0.10370   0.75510   0.54860   Biso      1.000     C          0.635234  
         C27       1.0000    0.38360   0.34000   0.42260   Biso      1.000     C          0.689248  
         C28       1.0000    0.93270   0.92150   0.56260   Biso      1.000     C          0.055998  
         C29       1.0000    0.03420   0.59780   0.19150   Biso      1.000     C          -0.153927           
         C30       1.0000    0.31650   0.84210   0.20510   Biso      1.000     C          -0.089358           
         C31       1.0000    0.89630   0.24490   0.45140   Biso      1.000     C          0.635234  
         C32       1.0000    0.61640   0.66000   0.57740   Biso      1.000     C          0.689248  
         C33       1.0000    0.05610   0.88700   0.52590   Biso      1.000     C          -0.067845           
         C34       1.0000    0.10370   0.25510   0.95140   Biso      1.000     C          0.635234  
         C35       1.0000    0.03420   0.09780   0.30850   Biso      1.000     C          -0.153927           
         C36       1.0000    0.72780   0.22480   0.86100   Biso      1.000     C          -0.07413099999999999          
         C37       1.0000    0.12780   0.15510   0.36840   Biso      1.000     C          0.06731799999999999           
         C38       1.0000    0.77650   0.21410   0.73570   Biso      1.000     C          -0.10336300000000001          
         C39       1.0000    0.93270   0.42150   0.93740   Biso      1.000     C          0.055998  
         C40       1.0000    0.12030   0.96530   0.46460   Biso      1.000     C          -0.158978           
         C41       1.0000    0.98220   0.59940   0.32180   Biso      1.000     C          0.587903  
         C42       1.0000    0.08270   0.66140   0.25760   Biso      1.000     C          0.0045509999999999995         
         C43       1.0000    0.98220   0.09940   0.17820   Biso      1.000     C          0.587903  
         C44       1.0000    0.61640   0.16000   0.92260   Biso      1.000     C          0.689248  
         C45       1.0000    0.27220   0.27520   0.36100   Biso      1.000     C          -0.074129           
         C46       1.0000    0.01780   0.90060   0.82180   Biso      1.000     C          0.587903  
         C47       1.0000    0.87220   0.34490   0.86840   Biso      1.000     C          0.067319  
         C48       1.0000    0.06730   0.57850   0.06260   Biso      1.000     C          0.055998  
         Gd1       1.0000    0.21026   0.48489   0.55312   Biso      1.000     Gd          2.077887  
         Gd2       1.0000    0.78974   0.01511   0.05312   Biso      1.000     Gd          2.077888  
         Gd3       1.0000    0.21026   0.98489   0.94688   Biso      1.000     Gd          2.077888  
         Gd4       1.0000    0.78974   0.51511   0.44688   Biso      1.000     Gd          2.077889  
         H1        1.0000    0.79860   0.05910   0.55890   Biso      1.000     H          0.133023  
         H2        1.0000    0.20140   0.44090   0.05890   Biso      1.000     H          0.133023  
         H3        1.0000    0.58970   0.57410   0.70950   Biso      1.000     H          0.12620699999999999           
         H4        1.0000    0.58970   0.07410   0.79050   Biso      1.000     H          0.12620699999999999           
         H5        1.0000    0.74510   0.16900   0.69180   Biso      1.000     H          0.12456400000000001           
         H6        1.0000    0.79860   0.55910   0.94110   Biso      1.000     H          0.133023  
         H7        1.0000    0.20140   0.94090   0.44110   Biso      1.000     H          0.133023  
         H8        1.0000    0.25490   0.33100   0.19180   Biso      1.000     H          0.12456400000000001           
         H9        1.0000    0.93850   0.01630   0.31290   Biso      1.000     H          0.134534  
         H10       1.0000    0.06150   0.98370   0.68710   Biso      1.000     H          0.134534  
         H11       1.0000    0.74510   0.66900   0.80820   Biso      1.000     H          0.12456400000000001           
         H12       1.0000    0.93850   0.51630   0.18710   Biso      1.000     H          0.134534  
         H13       1.0000    0.25490   0.83100   0.30820   Biso      1.000     H          0.12456500000000001           
         H14       1.0000    0.41030   0.92590   0.20950   Biso      1.000     H          0.12620599999999998           
         H15       1.0000    0.06150   0.48370   0.81290   Biso      1.000     H          0.134534  
         H16       1.0000    0.41030   0.42590   0.29050   Biso      1.000     H          0.12620599999999998           
         O1        1.0000    0.99480   0.87840   0.03540   Biso      1.000     O          -0.747153           
         O2        1.0000    0.03690   0.15510   0.11820   Biso      1.000     O          -0.672864           
         O3        1.0000    0.46800   0.11170   0.90800   Biso      1.000     O          -0.672013           
         O4        1.0000    0.32550   0.34000   0.48330   Biso      1.000     O          -0.716743           
         O5        1.0000    0.76090   0.72880   0.07500   Biso      1.000     O          -0.571235           
         O6        1.0000    0.99480   0.37840   0.46460   Biso      1.000     O          -0.747153           
         O7        1.0000    0.67450   0.16000   0.98330   Biso      1.000     O          -0.716743           
         O8        1.0000    0.15180   0.00270   0.81740   Biso      1.000     O          -0.608855           
         O9        1.0000    0.53200   0.38830   0.40800   Biso      1.000     O          -0.672013           
         O10       1.0000    0.96310   0.84490   0.88180   Biso      1.000     O          -0.672864           
         O11       1.0000    0.84820   0.49730   0.31740   Biso      1.000     O          -0.608855           
         O12       1.0000    0.23910   0.77120   0.57500   Biso      1.000     O          -0.571234           
         O13       1.0000    0.53200   0.88830   0.09200   Biso      1.000     O          -0.672013           
         O14       1.0000    0.76090   0.22880   0.42500   Biso      1.000     O          -0.571235           
         O15       1.0000    0.00520   0.12160   0.96460   Biso      1.000     O          -0.747153           
         O16       1.0000    0.15180   0.50270   0.68260   Biso      1.000     O          -0.608855           
         O17       1.0000    0.00520   0.62160   0.53540   Biso      1.000     O          -0.747153           
         O18       1.0000    0.32550   0.84000   0.01670   Biso      1.000     O          -0.716743           
         O19       1.0000    0.46800   0.61170   0.59200   Biso      1.000     O          -0.672013           
         O20       1.0000    0.03690   0.65510   0.38180   Biso      1.000     O          -0.672864           
         O21       1.0000    0.67450   0.66000   0.51670   Biso      1.000     O          -0.716743           
         O22       1.0000    0.23910   0.27120   0.92500   Biso      1.000     O          -0.571235           
         O23       1.0000    0.84820   0.99730   0.18260   Biso      1.000     O          -0.608855           
         O24       1.0000    0.96310   0.34490   0.61820   Biso      1.000     O          -0.672864 