
##########################################################################
#               Crystallographic Information Format file
#               Produced by PyCifRW module
#
#  This is a CIF file.  CIF has been adopted by the International
#  Union of Crystallography as the standard for data archiving and
#  transmission.
#
#  For information on this file format, follow the CIF links at
#  http://www.iucr.org
##########################################################################

data_image0

_cell_length_a                          14.4962
_cell_length_b                          14.4962
_cell_length_c                          16.114
_cell_angle_alpha                       91.0698
_cell_angle_beta                        91.0698
_cell_angle_gamma                       94.7637
_symmetry_space_group_name_H-M          'P 1'
_symmetry_int_tables_number             1
loop_
  _symmetry_equiv_pos_as_xyz
         'x, y, z' 
loop_
  _atom_site_label
  _atom_site_occupancy
  _atom_site_fract_x
  _atom_site_fract_y
  _atom_site_fract_z
  _atom_site_thermal_displace_type
  _atom_site_B_iso_or_equiv
  _atom_site_type_symbol
  _atom_site_charge
         C1        1.0000    0.75130   0.70690   0.31740   Biso      1.000     C          -0.015238           
         C2        1.0000    0.31870   0.88070   0.43570   Biso      1.000     C          -0.115633           
         C3        1.0000    0.95420   0.42860   0.45320   Biso      1.000     C          0.166814  
         C4        1.0000    0.75330   0.61730   0.26830   Biso      1.000     C          0.566803  
         C5        1.0000    0.97910   0.42450   0.19460   Biso      1.000     C          -0.017648           
         C6        1.0000    0.03490   0.41450   0.49670   Biso      1.000     C          -0.167603           
         C7        1.0000    0.05790   0.45130   0.23810   Biso      1.000     C          -0.124024           
         C8        1.0000    0.91970   0.51410   0.45690   Biso      1.000     C          -0.153802           
         C9        1.0000    0.81070   0.34010   0.39860   Biso      1.000     C          -0.104698           
         C10       1.0000    0.09940   0.68820   0.32570   Biso      1.000     C          -0.163698           
         C11       1.0000    0.27340   0.64440   0.35270   Biso      1.000     C          -0.158679           
         C12       1.0000    0.21130   0.58470   0.30780   Biso      1.000     C          -0.154148           
         C13       1.0000    0.16260   0.74820   0.36990   Biso      1.000     C          -0.152986           
         C14       1.0000    0.57030   0.97830   0.71550   Biso      1.000     C          0.10241   
         C15       1.0000    0.95900   0.83500   0.79870   Biso      1.000     C          0.546865  
         C16       1.0000    0.79730   0.63230   0.00460   Biso      1.000     C          0.562117  
         C17       1.0000    0.28710   0.94130   0.86050   Biso      1.000     C          0.090318  
         C18       1.0000    0.60700   0.12400   0.79580   Biso      1.000     C          0.178532  
         C19       1.0000    0.87230   0.74050   0.90270   Biso      1.000     C          -0.139177           
         C20       1.0000    0.87040   0.79140   0.83140   Biso      1.000     C          -0.017185           
         C21       1.0000    0.38690   0.90670   0.49230   Biso      1.000     C          -0.005366           
         C22       1.0000    0.26500   0.79380   0.84760   Biso      1.000     C          -0.041198           
         C23       1.0000    0.37730   0.75970   0.48520   Biso      1.000     C          0.088488  
         C24       1.0000    0.79640   0.78700   0.28880   Biso      1.000     C          -0.145189           
         C25       1.0000    0.38270   0.24670   0.23170   Biso      1.000     C          0.566805  
         C26       1.0000    0.57550   0.02090   0.30540   Biso      1.000     C          -0.017702           
         C27       1.0000    0.58550   0.96510   0.00330   Biso      1.000     C          -0.167622           
         C28       1.0000    0.54870   0.94210   0.26190   Biso      1.000     C          -0.12407  
         C29       1.0000    0.48590   0.08030   0.04310   Biso      1.000     C          -0.153781           
         C30       1.0000    0.65990   0.18930   0.10140   Biso      1.000     C          -0.104693           
         C31       1.0000    0.35560   0.72660   0.14730   Biso      1.000     C          -0.158685           
         C32       1.0000    0.41530   0.78870   0.19220   Biso      1.000     C          -0.154205           
         C33       1.0000    0.25180   0.83740   0.13010   Biso      1.000     C          -0.152994           
         C34       1.0000    0.97830   0.57030   0.21550   Biso      1.000     C          0.102443  
         C35       1.0000    0.83500   0.95900   0.29870   Biso      1.000     C          0.546876  
         C36       1.0000    0.63230   0.79730   0.50460   Biso      1.000     C          0.562098  
         C37       1.0000    0.94130   0.28710   0.36050   Biso      1.000     C          0.090391  
         C38       1.0000    0.12400   0.60700   0.29580   Biso      1.000     C          0.178597  
         C39       1.0000    0.74050   0.87230   0.40270   Biso      1.000     C          -0.139165           
         C40       1.0000    0.79140   0.87040   0.33140   Biso      1.000     C          -0.017292           
         C41       1.0000    0.79380   0.26500   0.34760   Biso      1.000     C          -0.04126  
         C42       1.0000    0.24880   0.72520   0.38360   Biso      1.000     C          0.178596  
         C43       1.0000    0.69290   0.79230   0.43140   Biso      1.000     C          -0.026824           
         C44       1.0000    0.69950   0.70890   0.38940   Biso      1.000     C          -0.128929           
         C45       1.0000    0.72520   0.24880   0.88360   Biso      1.000     C          0.17853   
         C46       1.0000    0.79230   0.69290   0.93140   Biso      1.000     C          -0.026905           
         C47       1.0000    0.78700   0.79640   0.78880   Biso      1.000     C          -0.145233           
         C48       1.0000    0.75120   0.27480   0.61640   Biso      1.000     C          0.178488  
         C49       1.0000    0.30710   0.20770   0.56860   Biso      1.000     C          -0.026938           
         C50       1.0000    0.20360   0.21300   0.71120   Biso      1.000     C          -0.145239           
         C51       1.0000    0.24870   0.29310   0.68260   Biso      1.000     C          -0.015213           
         C52       1.0000    0.30050   0.29110   0.61060   Biso      1.000     C          -0.129024           
         C53       1.0000    0.62270   0.24030   0.51480   Biso      1.000     C          0.088467  
         C54       1.0000    0.61310   0.09330   0.50770   Biso      1.000     C          -0.00543  
         C55       1.0000    0.68130   0.11930   0.56430   Biso      1.000     C          -0.115638           
         C56       1.0000    0.04580   0.57140   0.54680   Biso      1.000     C          0.16691   
         C57       1.0000    0.24670   0.38270   0.73170   Biso      1.000     C          0.566716  
         C58       1.0000    0.02090   0.57550   0.80540   Biso      1.000     C          -0.017672           
         C59       1.0000    0.96510   0.58550   0.50330   Biso      1.000     C          -0.167609           
         C60       1.0000    0.94210   0.54870   0.76190   Biso      1.000     C          -0.12419  
         C61       1.0000    0.08030   0.48590   0.54310   Biso      1.000     C          -0.153726           
         C62       1.0000    0.18930   0.65990   0.60140   Biso      1.000     C          -0.104783           
         C63       1.0000    0.90060   0.31180   0.67430   Biso      1.000     C          -0.163692           
         C64       1.0000    0.72660   0.35560   0.64730   Biso      1.000     C          -0.158693           
         C65       1.0000    0.78870   0.41530   0.69220   Biso      1.000     C          -0.154189           
         C66       1.0000    0.83740   0.25180   0.63010   Biso      1.000     C          -0.152989           
         C67       1.0000    0.20620   0.73500   0.65240   Biso      1.000     C          -0.041211           
         C68       1.0000    0.20860   0.12960   0.66860   Biso      1.000     C          -0.017215           
         C69       1.0000    0.25950   0.12770   0.59730   Biso      1.000     C          -0.139262           
         C70       1.0000    0.87600   0.39300   0.70420   Biso      1.000     C          0.178623  
         C71       1.0000    0.70690   0.75130   0.81740   Biso      1.000     C          -0.015277           
         C72       1.0000    0.70890   0.69950   0.88940   Biso      1.000     C          -0.129017           
         C73       1.0000    0.75970   0.37730   0.98520   Biso      1.000     C          0.088439  
         C74       1.0000    0.90670   0.38690   0.99230   Biso      1.000     C          -0.005341           
         C75       1.0000    0.88070   0.31870   0.93570   Biso      1.000     C          -0.115594           
         C76       1.0000    0.42860   0.95420   0.95320   Biso      1.000     C          0.166899  
         C77       1.0000    0.61730   0.75330   0.76830   Biso      1.000     C          0.566797  
         C78       1.0000    0.42450   0.97910   0.69460   Biso      1.000     C          -0.017624           
         C79       1.0000    0.41450   0.03490   0.99670   Biso      1.000     C          -0.167581           
         C80       1.0000    0.57140   0.04580   0.04680   Biso      1.000     C          0.166814  
         C81       1.0000    0.45130   0.05790   0.73810   Biso      1.000     C          -0.124036           
         C82       1.0000    0.34010   0.81070   0.89860   Biso      1.000     C          -0.104779           
         C83       1.0000    0.68820   0.09940   0.82570   Biso      1.000     C          -0.163671           
         C84       1.0000    0.64440   0.27340   0.85270   Biso      1.000     C          -0.158657           
         C85       1.0000    0.58470   0.21130   0.80780   Biso      1.000     C          -0.154134           
         C86       1.0000    0.74820   0.16260   0.86990   Biso      1.000     C          -0.152963           
         C87       1.0000    0.02170   0.42970   0.78450   Biso      1.000     C          0.102372  
         C88       1.0000    0.16500   0.04100   0.70130   Biso      1.000     C          0.546865  
         C89       1.0000    0.36770   0.20270   0.49540   Biso      1.000     C          0.562125  
         C90       1.0000    0.05870   0.71290   0.63950   Biso      1.000     C          0.090345  
         C91       1.0000    0.51410   0.91970   0.95690   Biso      1.000     C          -0.153768           
         C92       1.0000    0.11930   0.68130   0.06430   Biso      1.000     C          -0.115797           
         C93       1.0000    0.31180   0.90060   0.17430   Biso      1.000     C          -0.163719           
         C94       1.0000    0.24030   0.62270   0.01480   Biso      1.000     C          0.088434  
         C95       1.0000    0.09330   0.61310   0.00770   Biso      1.000     C          -0.005416           
         C96       1.0000    0.42970   0.02170   0.28450   Biso      1.000     C          0.102438  
         C97       1.0000    0.04100   0.16500   0.20130   Biso      1.000     C          0.546911  
         C98       1.0000    0.20270   0.36770   0.99540   Biso      1.000     C          0.562065  
         C99       1.0000    0.71290   0.05870   0.13950   Biso      1.000     C          0.090376  
         C100      1.0000    0.12770   0.25950   0.09730   Biso      1.000     C          -0.139187           
         C101      1.0000    0.39300   0.87600   0.20420   Biso      1.000     C          0.178548  
         C102      1.0000    0.73500   0.20620   0.15240   Biso      1.000     C          -0.041245           
         C103      1.0000    0.27480   0.75120   0.11640   Biso      1.000     C          0.178639  
         C104      1.0000    0.20770   0.30710   0.06860   Biso      1.000     C          -0.026703           
         C105      1.0000    0.21300   0.20360   0.21120   Biso      1.000     C          -0.145314           
         C106      1.0000    0.29310   0.24870   0.18260   Biso      1.000     C          -0.015283           
         C107      1.0000    0.29110   0.30050   0.11060   Biso      1.000     C          -0.128967           
         C108      1.0000    0.12960   0.20860   0.16860   Biso      1.000     C          -0.017351           
         H1        1.0000    0.73800   0.92780   0.43210   Biso      1.000     H          0.120432  
         H2        1.0000    0.40610   0.96750   0.50750   Biso      1.000     H          0.123271  
         H3        1.0000    0.73540   0.23880   0.33150   Biso      1.000     H          0.119896  
         H4        1.0000    0.83040   0.78520   0.24050   Biso      1.000     H          0.125826  
         H5        1.0000    0.66970   0.65470   0.40920   Biso      1.000     H          0.128847  
         H6        1.0000    0.38810   0.69830   0.49440   Biso      1.000     H          0.111685  
         H7        1.0000    0.28290   0.91930   0.40580   Biso      1.000     H          0.140663  
         H8        1.0000    0.33350   0.62830   0.36180   Biso      1.000     H          0.132839  
         H9        1.0000    0.05860   0.35680   0.49470   Biso      1.000     H          0.135236  
         H10       1.0000    0.10340   0.41400   0.25560   Biso      1.000     H          0.133952  
         H11       1.0000    0.86550   0.52390   0.42790   Biso      1.000     H          0.14039   
         H12       1.0000    0.76690   0.37470   0.42320   Biso      1.000     H          0.139315  
         H13       1.0000    0.00440   0.28020   0.35630   Biso      1.000     H          0.10923   
         H14       1.0000    0.22980   0.52940   0.28600   Biso      1.000     H          0.138994  
         H15       1.0000    0.96140   0.36420   0.17660   Biso      1.000     H          0.121344  
         H16       1.0000    0.96080   0.63060   0.21530   Biso      1.000     H          0.109671  
         H17       1.0000    0.58600   0.89660   0.24440   Biso      1.000     H          0.133942  
         H18       1.0000    0.47060   0.77020   0.21400   Biso      1.000     H          0.13897   
         H19       1.0000    0.36940   0.03920   0.28470   Biso      1.000     H          0.109679  
         H20       1.0000    0.71980   0.99560   0.14370   Biso      1.000     H          0.10922   
         H21       1.0000    0.07220   0.26200   0.06790   Biso      1.000     H          0.120423  
         H22       1.0000    0.76120   0.26460   0.16850   Biso      1.000     H          0.119894  
         H23       1.0000    0.21480   0.16960   0.25950   Biso      1.000     H          0.125796  
         H24       1.0000    0.34530   0.33030   0.09080   Biso      1.000     H          0.128835  
         H25       1.0000    0.30170   0.61190   0.00560   Biso      1.000     H          0.111673  
         H26       1.0000    0.19560   0.85520   0.11000   Biso      1.000     H          0.140152  
         H27       1.0000    0.03250   0.59390   0.99250   Biso      1.000     H          0.123248  
         H28       1.0000    0.63580   0.03860   0.32340   Biso      1.000     H          0.121334  
         H29       1.0000    0.64320   0.94140   0.00530   Biso      1.000     H          0.135226  
         H30       1.0000    0.14480   0.80440   0.39000   Biso      1.000     H          0.140147  
         H31       1.0000    0.47610   0.13450   0.07210   Biso      1.000     H          0.140405  
         H32       1.0000    0.62530   0.23310   0.07680   Biso      1.000     H          0.139321  
         H33       1.0000    0.29560   0.96060   0.18330   Biso      1.000     H          0.132976  
         H34       1.0000    0.37170   0.66650   0.13820   Biso      1.000     H          0.132854  
         H35       1.0000    0.08070   0.71710   0.09420   Biso      1.000     H          0.140619  
         H36       1.0000    0.63060   0.96080   0.71530   Biso      1.000     H          0.109673  
         H37       1.0000    0.03940   0.70440   0.31670   Biso      1.000     H          0.132976  
         H38       1.0000    0.92780   0.73800   0.93210   Biso      1.000     H          0.120438  
         H39       1.0000    0.16960   0.21480   0.75950   Biso      1.000     H          0.125816  
         H40       1.0000    0.33030   0.34530   0.59080   Biso      1.000     H          0.128812  
         H41       1.0000    0.61190   0.30170   0.50560   Biso      1.000     H          0.111688  
         H42       1.0000    0.59390   0.03250   0.49250   Biso      1.000     H          0.123262  
         H43       1.0000    0.71710   0.08070   0.59420   Biso      1.000     H          0.140665  
         H44       1.0000    0.03860   0.63580   0.82340   Biso      1.000     H          0.121356  
         H45       1.0000    0.26460   0.76120   0.66850   Biso      1.000     H          0.119875  
         H46       1.0000    0.94140   0.64320   0.50530   Biso      1.000     H          0.135231  
         H47       1.0000    0.28020   0.00440   0.85630   Biso      1.000     H          0.109216  
         H48       1.0000    0.23310   0.62530   0.57680   Biso      1.000     H          0.139278  
         H49       1.0000    0.96060   0.29560   0.68330   Biso      1.000     H          0.133005  
         H50       1.0000    0.66650   0.37170   0.63820   Biso      1.000     H          0.13284   
         H51       1.0000    0.77020   0.47060   0.71400   Biso      1.000     H          0.138991  
         H52       1.0000    0.85520   0.19560   0.61000   Biso      1.000     H          0.140132  
         H53       1.0000    0.89660   0.58600   0.74440   Biso      1.000     H          0.133917  
         H54       1.0000    0.26200   0.07220   0.56790   Biso      1.000     H          0.120408  
         H55       1.0000    0.13450   0.47610   0.57210   Biso      1.000     H          0.140428  
         H56       1.0000    0.03920   0.36940   0.78470   Biso      1.000     H          0.109665  
         H57       1.0000    0.99560   0.71980   0.64370   Biso      1.000     H          0.109205  
         H58       1.0000    0.23880   0.73540   0.83150   Biso      1.000     H          0.119926  
         H59       1.0000    0.78520   0.83040   0.74050   Biso      1.000     H          0.125799  
         H60       1.0000    0.65470   0.66970   0.90920   Biso      1.000     H          0.128837  
         H61       1.0000    0.96750   0.40610   0.00750   Biso      1.000     H          0.123309  
         H62       1.0000    0.91930   0.28290   0.90580   Biso      1.000     H          0.140689  
         H63       1.0000    0.36420   0.96140   0.67660   Biso      1.000     H          0.121378  
         H64       1.0000    0.35680   0.05860   0.99470   Biso      1.000     H          0.135253  
         H65       1.0000    0.69830   0.38810   0.99440   Biso      1.000     H          0.111686  
         H66       1.0000    0.41400   0.10340   0.75560   Biso      1.000     H          0.133973  
         H67       1.0000    0.52390   0.86550   0.92790   Biso      1.000     H          0.140414  
         H68       1.0000    0.37470   0.76690   0.92320   Biso      1.000     H          0.139294  
         H69       1.0000    0.70440   0.03940   0.81670   Biso      1.000     H          0.132989  
         H70       1.0000    0.62830   0.33350   0.86180   Biso      1.000     H          0.132856  
         H71       1.0000    0.52940   0.22980   0.78600   Biso      1.000     H          0.139004  
         H72       1.0000    0.80440   0.14480   0.89000   Biso      1.000     H          0.140143  
         N1        1.0000    0.90530   0.35470   0.40660   Biso      1.000     N          0.003967  
         N2        1.0000    0.42270   0.83030   0.52350   Biso      1.000     N          -0.275264           
         N3        1.0000    0.31340   0.78580   0.43140   Biso      1.000     N          0.008276  
         N4        1.0000    0.92970   0.49850   0.18130   Biso      1.000     N          -0.25962  
         N5        1.0000    0.35470   0.90530   0.90660   Biso      1.000     N          0.003881  
         N6        1.0000    0.23310   0.87630   0.82310   Biso      1.000     N          -0.246276           
         N7        1.0000    0.78580   0.31340   0.93140   Biso      1.000     N          0.008272  
         N8        1.0000    0.83030   0.42270   0.02350   Biso      1.000     N          -0.275273           
         N9        1.0000    0.87630   0.23310   0.32310   Biso      1.000     N          -0.246327           
         N10       1.0000    0.05700   0.54500   0.25090   Biso      1.000     N          0.007168  
         N11       1.0000    0.45500   0.94300   0.24910   Biso      1.000     N          0.007173  
         N12       1.0000    0.68660   0.21420   0.56860   Biso      1.000     N          0.008295  
         N13       1.0000    0.21420   0.68660   0.06860   Biso      1.000     N          0.008202  
         N14       1.0000    0.16970   0.57730   0.97650   Biso      1.000     N          -0.275    
         N15       1.0000    0.64530   0.09470   0.09340   Biso      1.000     N          0.003967  
         N16       1.0000    0.76690   0.12370   0.17690   Biso      1.000     N          -0.246333           
         N17       1.0000    0.94300   0.45500   0.74910   Biso      1.000     N          0.007077  
         N18       1.0000    0.07030   0.50150   0.81870   Biso      1.000     N          -0.25938  
         N19       1.0000    0.57730   0.16970   0.47650   Biso      1.000     N          -0.275227           
         N20       1.0000    0.09470   0.64530   0.59340   Biso      1.000     N          0.003898  
         N21       1.0000    0.49850   0.92970   0.68130   Biso      1.000     N          -0.259629           
         N22       1.0000    0.12370   0.76690   0.67690   Biso      1.000     N          -0.246263           
         N23       1.0000    0.50150   0.07030   0.31870   Biso      1.000     N          -0.259569           
         N24       1.0000    0.54500   0.05700   0.75090   Biso      1.000     N          0.007153  
         Ni1       1.0000    0.47969   0.18683   0.38572   Biso      1.000     Ni          0.728132  
         Ni2       1.0000    0.11660   0.88340   0.75000   Biso      1.000     Ni          0.730431  
         Ni3       1.0000    0.88340   0.11660   0.25000   Biso      1.000     Ni          0.730717  
         Ni4       1.0000    0.18683   0.47969   0.88572   Biso      1.000     Ni          0.726933  
         Ni5       1.0000    0.52031   0.81317   0.61428   Biso      1.000     Ni          0.728473  
         Ni6       1.0000    0.81317   0.52031   0.11428   Biso      1.000     Ni          0.728404  
         O1        1.0000    0.41578   0.27476   0.47220   Biso      1.000     O          -0.533121           
         O2        1.0000    0.37432   0.12664   0.45940   Biso      1.000     O          -0.488906           
         O3        1.0000    0.12590   0.03804   0.77040   Biso      1.000     O          -0.540302           
         O4        1.0000    0.17203   0.96673   0.66020   Biso      1.000     O          -0.546995           
         O5        1.0000    0.62269   0.78601   0.69770   Biso      1.000     O          -0.554583           
         O6        1.0000    0.54290   0.72390   0.80130   Biso      1.000     O          -0.621083           
         O7        1.0000    0.72524   0.58422   0.02780   Biso      1.000     O          -0.533166           
         O8        1.0000    0.87336   0.62568   0.04060   Biso      1.000     O          -0.488879           
         O9        1.0000    0.96196   0.87410   0.72960   Biso      1.000     O          -0.540352           
         O10       1.0000    0.03327   0.82797   0.83980   Biso      1.000     O          -0.546941           
         O11       1.0000    0.78601   0.62269   0.19770   Biso      1.000     O          -0.554559           
         O12       1.0000    0.58422   0.72524   0.52780   Biso      1.000     O          -0.533158           
         O13       1.0000    0.27610   0.45710   0.69870   Biso      1.000     O          -0.621287           
         O14       1.0000    0.62568   0.87336   0.54060   Biso      1.000     O          -0.488968           
         O15       1.0000    0.87410   0.96196   0.22960   Biso      1.000     O          -0.539976           
         O16       1.0000    0.82797   0.03327   0.33980   Biso      1.000     O          -0.546427           
         O17       1.0000    0.37731   0.21399   0.30230   Biso      1.000     O          -0.554441           
         O18       1.0000    0.45710   0.27610   0.19870   Biso      1.000     O          -0.62112  
         O19       1.0000    0.27476   0.41578   0.97220   Biso      1.000     O          -0.533437           
         O20       1.0000    0.12664   0.37432   0.95940   Biso      1.000     O          -0.489512           
         O21       1.0000    0.03804   0.12590   0.27040   Biso      1.000     O          -0.540031           
         O22       1.0000    0.96673   0.17203   0.16020   Biso      1.000     O          -0.546453           
         O23       1.0000    0.72390   0.54290   0.30130   Biso      1.000     O          -0.621102           
         O24       1.0000    0.21399   0.37731   0.80230   Biso      1.000     O          -0.554377 