
##########################################################################
#               Crystallographic Information Format file
#               Produced by PyCifRW module
#
#  This is a CIF file.  CIF has been adopted by the International
#  Union of Crystallography as the standard for data archiving and
#  transmission.
#
#  For information on this file format, follow the CIF links at
#  http://www.iucr.org
##########################################################################

data_image0

_cell_length_a                          6.1156
_cell_length_b                          12.419
_cell_length_c                          23.426
_cell_angle_alpha                       90
_cell_angle_beta                        90
_cell_angle_gamma                       94.4286
_symmetry_space_group_name_H-M          'P 1'
_symmetry_int_tables_number             1
loop_
  _symmetry_equiv_pos_as_xyz
         'x, y, z' 
loop_
  _atom_site_label
  _atom_site_occupancy
  _atom_site_fract_x
  _atom_site_fract_y
  _atom_site_fract_z
  _atom_site_thermal_displace_type
  _atom_site_B_iso_or_equiv
  _atom_site_type_symbol
  _atom_site_charge
         C1        1.0000    0.90270   0.32740   0.75210   Biso      1.000     C          0.084763  
         C2        1.0000    0.18220   0.64100   0.49210   Biso      1.000     C          0.547895  
         C3        1.0000    0.98100   0.50890   0.80400   Biso      1.000     C          0.66715   
         C4        1.0000    0.68220   0.14100   0.00790   Biso      1.000     C          0.547896  
         C5        1.0000    0.97320   0.09810   0.21730   Biso      1.000     C          0.100206  
         C6        1.0000    0.48100   0.00890   0.69600   Biso      1.000     C          0.667151  
         C7        1.0000    0.02680   0.90190   0.78270   Biso      1.000     C          0.100207  
         C8        1.0000    0.07330   0.42190   0.35840   Biso      1.000     C          0.061501  
         C9        1.0000    0.23760   0.41310   0.39860   Biso      1.000     C          0.071622  
         C10       1.0000    0.86450   0.43530   0.55670   Biso      1.000     C          0.028065  
         C11       1.0000    0.84050   0.42640   0.77010   Biso      1.000     C          0.061751  
         C12       1.0000    0.34050   0.92640   0.72990   Biso      1.000     C          0.061749  
         C13       1.0000    0.92670   0.57810   0.64160   Biso      1.000     C          0.0615    
         C14       1.0000    0.09730   0.67260   0.24790   Biso      1.000     C          0.084763  
         C15       1.0000    0.80790   0.65790   0.40500   Biso      1.000     C          0.651299  
         C16       1.0000    0.10450   0.80950   0.80710   Biso      1.000     C          0.102143  
         C17       1.0000    0.08580   0.26790   0.77850   Biso      1.000     C          0.588175  
         C18       1.0000    0.26240   0.08690   0.89860   Biso      1.000     C          0.071622  
         C19       1.0000    0.76240   0.58690   0.60140   Biso      1.000     C          0.071623  
         C20       1.0000    0.91420   0.73210   0.22150   Biso      1.000     C          0.588175  
         C21       1.0000    0.15950   0.57360   0.22990   Biso      1.000     C          0.061751  
         C22       1.0000    0.46890   0.07260   0.09670   Biso      1.000     C          0.057637  
         C23       1.0000    0.39550   0.69050   0.30710   Biso      1.000     C          0.102143  
         C24       1.0000    0.01900   0.49110   0.19600   Biso      1.000     C          0.667149  
         C25       1.0000    0.65950   0.07360   0.27010   Biso      1.000     C          0.061749  
         C26       1.0000    0.53110   0.92740   0.90330   Biso      1.000     C          0.057637  
         C27       1.0000    0.69210   0.84210   0.90500   Biso      1.000     C          0.651299  
         C28       1.0000    0.40270   0.82740   0.74790   Biso      1.000     C          0.084764  
         C29       1.0000    0.59730   0.17260   0.25210   Biso      1.000     C          0.084764  
         C30       1.0000    0.19210   0.34210   0.59500   Biso      1.000     C          0.651299  
         C31       1.0000    0.47320   0.59810   0.28270   Biso      1.000     C          0.100206  
         C32       1.0000    0.81780   0.35900   0.50790   Biso      1.000     C          0.547896  
         C33       1.0000    0.03110   0.42740   0.59670   Biso      1.000     C          0.057637  
         C34       1.0000    0.41420   0.23210   0.27850   Biso      1.000     C          0.588175  
         C35       1.0000    0.57330   0.92190   0.14160   Biso      1.000     C          0.0615    
         C36       1.0000    0.13550   0.56470   0.44330   Biso      1.000     C          0.028065  
         C37       1.0000    0.52680   0.40190   0.71730   Biso      1.000     C          0.100207  
         C38       1.0000    0.89550   0.19050   0.19290   Biso      1.000     C          0.102142  
         C39       1.0000    0.42670   0.07810   0.85840   Biso      1.000     C          0.0615    
         C40       1.0000    0.30790   0.15790   0.09500   Biso      1.000     C          0.651299  
         C41       1.0000    0.60450   0.30950   0.69290   Biso      1.000     C          0.102143  
         C42       1.0000    0.58580   0.76790   0.72150   Biso      1.000     C          0.588175  
         C43       1.0000    0.96890   0.57260   0.40330   Biso      1.000     C          0.057637  
         C44       1.0000    0.31780   0.85900   0.99210   Biso      1.000     C          0.547896  
         C45       1.0000    0.63550   0.06470   0.05670   Biso      1.000     C          0.028066  
         C46       1.0000    0.51900   0.99110   0.30400   Biso      1.000     C          0.66715   
         C47       1.0000    0.36450   0.93530   0.94330   Biso      1.000     C          0.028066  
         C48       1.0000    0.73760   0.91310   0.10140   Biso      1.000     C          0.071622  
         Cu1       1.0000    0.50000   0.50000   0.50000   Biso      1.000     Cu          0.783387  
         Cu2       1.0000    0.00000   0.00000   0.00000   Biso      1.000     Cu          0.78339   
         H1        1.0000    0.17110   0.14320   0.89580   Biso      1.000     H          0.119042  
         H2        1.0000    0.67110   0.64320   0.60420   Biso      1.000     H          0.119042  
         H3        1.0000    0.39070   0.42340   0.70630   Biso      1.000     H          0.10255   
         H4        1.0000    0.82890   0.85680   0.10420   Biso      1.000     H          0.119043  
         H5        1.0000    0.44330   0.12900   0.82920   Biso      1.000     H          0.104101  
         H6        1.0000    0.52750   0.27510   0.66300   Biso      1.000     H          0.115027  
         H7        1.0000    0.10930   0.07660   0.20630   Biso      1.000     H          0.102549  
         H8        1.0000    0.32890   0.35680   0.39580   Biso      1.000     H          0.119043  
         H9        1.0000    0.02750   0.77510   0.83700   Biso      1.000     H          0.115026  
         H10       1.0000    0.55670   0.87100   0.17080   Biso      1.000     H          0.104101  
         H11       1.0000    0.60930   0.57660   0.29370   Biso      1.000     H          0.10255   
         H12       1.0000    0.89070   0.92340   0.79370   Biso      1.000     H          0.102549  
         H13       1.0000    0.94330   0.62900   0.67080   Biso      1.000     H          0.104101  
         H14       1.0000    0.97250   0.22490   0.16300   Biso      1.000     H          0.115026  
         H15       1.0000    0.47250   0.72490   0.33700   Biso      1.000     H          0.115026  
         H16       1.0000    0.05670   0.37100   0.32920   Biso      1.000     H          0.104101  
         N1        1.0000    0.35590   0.54000   0.24400   Biso      1.000     N          -0.300656           
         N2        1.0000    0.21370   0.72980   0.28820   Biso      1.000     N          -0.315056           
         N3        1.0000    0.56050   0.99930   0.86030   Biso      1.000     N          -0.252192           
         N4        1.0000    0.73350   0.51690   0.55930   Biso      1.000     N          -0.18352  
         N5        1.0000    0.06050   0.49930   0.63970   Biso      1.000     N          -0.252191           
         N6        1.0000    0.78630   0.27020   0.71180   Biso      1.000     N          -0.315055           
         N7        1.0000    0.43950   0.00070   0.13970   Biso      1.000     N          -0.252191           
         N8        1.0000    0.28630   0.77020   0.78820   Biso      1.000     N          -0.315056           
         N9        1.0000    0.26650   0.48310   0.44070   Biso      1.000     N          -0.18352  
         N10       1.0000    0.71370   0.22980   0.21180   Biso      1.000     N          -0.315056           
         N11       1.0000    0.14410   0.96000   0.74400   Biso      1.000     N          -0.300657           
         N12       1.0000    0.76650   0.98310   0.05930   Biso      1.000     N          -0.18352  
         N13       1.0000    0.85590   0.04000   0.25600   Biso      1.000     N          -0.300657           
         N14       1.0000    0.64410   0.46000   0.75600   Biso      1.000     N          -0.300656           
         N15       1.0000    0.23350   0.01690   0.94070   Biso      1.000     N          -0.18352  
         N16       1.0000    0.93950   0.50070   0.36030   Biso      1.000     N          -0.252191           
         O1        1.0000    0.15440   0.26440   0.62810   Biso      1.000     O          -0.738374           
         O2        1.0000    0.15390   0.19190   0.74980   Biso      1.000     O          -0.667128           
         O3        1.0000    0.81860   0.48050   0.20581   Biso      1.000     O          -0.646646           
         O4        1.0000    0.34610   0.30810   0.24980   Biso      1.000     O          -0.667129           
         O5        1.0000    0.84610   0.80810   0.25020   Biso      1.000     O          -0.667128           
         O6        1.0000    0.65390   0.69190   0.75020   Biso      1.000     O          -0.667129           
         O7        1.0000    0.64490   0.79450   0.67281   Biso      1.000     O          -0.508596           
         O8        1.0000    0.65440   0.76440   0.87190   Biso      1.000     O          -0.738373           
         O9        1.0000    0.18140   0.51950   0.79419   Biso      1.000     O          -0.646646           
         O10       1.0000    0.85510   0.70550   0.17281   Biso      1.000     O          -0.508595           
         O11       1.0000    0.41220   0.77580   0.99550   Biso      1.000     O          -0.537046           
         O12       1.0000    0.14490   0.29450   0.82719   Biso      1.000     O          -0.508594           
         O13       1.0000    0.84560   0.73560   0.37190   Biso      1.000     O          -0.738373           
         O14       1.0000    0.35240   0.35590   0.56380   Biso      1.000     O          -0.524162           
         O15       1.0000    0.37840   0.06620   0.66223   Biso      1.000     O          -0.660442           
         O16       1.0000    0.35510   0.20550   0.32719   Biso      1.000     O          -0.508597           
         O17       1.0000    0.34560   0.23560   0.12810   Biso      1.000     O          -0.738373           
         O18       1.0000    0.87840   0.56620   0.83777   Biso      1.000     O          -0.660441           
         O19       1.0000    0.67420   0.38630   0.47243   Biso      1.000     O          -0.531172           
         O20       1.0000    0.31860   0.98050   0.29419   Biso      1.000     O          -0.646647           
         O21       1.0000    0.64760   0.64410   0.43620   Biso      1.000     O          -0.524163           
         O22       1.0000    0.14760   0.14410   0.06380   Biso      1.000     O          -0.524164           
         O23       1.0000    0.17420   0.88630   0.02757   Biso      1.000     O          -0.531173           
         O24       1.0000    0.12160   0.43380   0.16223   Biso      1.000     O          -0.660441           
         O25       1.0000    0.91220   0.27580   0.50450   Biso      1.000     O          -0.537046           
         O26       1.0000    0.58780   0.22420   0.00450   Biso      1.000     O          -0.537046           
         O27       1.0000    0.32580   0.61370   0.52757   Biso      1.000     O          -0.531173           
         O28       1.0000    0.68140   0.01950   0.70581   Biso      1.000     O          -0.646647           
         O29       1.0000    0.62160   0.93380   0.33777   Biso      1.000     O          -0.660443           
         O30       1.0000    0.85240   0.85590   0.93620   Biso      1.000     O          -0.524163           
         O31       1.0000    0.82580   0.11370   0.97243   Biso      1.000     O          -0.531174           
         O32       1.0000    0.08780   0.72420   0.49550   Biso      1.000     O          -0.537046           
         Tb1       1.0000    0.49199   0.39141   0.16727   Biso      1.000     Tb          2.010366  
         Tb2       1.0000    0.50801   0.60859   0.83273   Biso      1.000     Tb          2.01037   
         Tb3       1.0000    0.00801   0.10859   0.66727   Biso      1.000     Tb          2.010371  
         Tb4       1.0000    0.99199   0.89141   0.33273   Biso      1.000     Tb          2.010369 