
##########################################################################
#               Crystallographic Information Format file
#               Produced by PyCifRW module
#
#  This is a CIF file.  CIF has been adopted by the International
#  Union of Crystallography as the standard for data archiving and
#  transmission.
#
#  For information on this file format, follow the CIF links at
#  http://www.iucr.org
##########################################################################

data_image0

_cell_length_a                          6.0408
_cell_length_b                          12.3324
_cell_length_c                          23.577
_cell_angle_alpha                       90
_cell_angle_beta                        90
_cell_angle_gamma                       94.1104
_symmetry_space_group_name_H-M          'P 1'
_symmetry_int_tables_number             1
loop_
  _symmetry_equiv_pos_as_xyz
         'x, y, z' 
loop_
  _atom_site_label
  _atom_site_occupancy
  _atom_site_fract_x
  _atom_site_fract_y
  _atom_site_fract_z
  _atom_site_thermal_displace_type
  _atom_site_B_iso_or_equiv
  _atom_site_type_symbol
  _atom_site_charge
         C1        1.0000    0.18360   0.64590   0.50790   Biso      1.000     C          0.549727  
         C2        1.0000    0.10750   0.80930   0.19380   Biso      1.000     C          0.10284   
         C3        1.0000    0.43290   0.07310   0.14220   Biso      1.000     C          0.057356  
         C4        1.0000    0.69760   0.83330   0.09270   Biso      1.000     C          0.651014  
         C5        1.0000    0.48510   0.01120   0.30360   Biso      1.000     C          0.663155  
         C6        1.0000    0.56710   0.92690   0.85780   Biso      1.000     C          0.05747   
         C7        1.0000    0.41110   0.82760   0.25200   Biso      1.000     C          0.089693  
         C8        1.0000    0.40260   0.23120   0.72210   Biso      1.000     C          0.583055  
         C9        1.0000    0.80240   0.66670   0.59270   Biso      1.000     C          0.651046  
         C10       1.0000    0.09740   0.26880   0.22210   Biso      1.000     C          0.583055  
         C11       1.0000    0.65550   0.07240   0.73000   Biso      1.000     C          0.067291  
         C12       1.0000    0.26460   0.08490   0.10120   Biso      1.000     C          0.070778  
         C13       1.0000    0.86570   0.43090   0.44380   Biso      1.000     C          0.03054   
         C14       1.0000    0.08890   0.67240   0.75200   Biso      1.000     C          0.089657  
         C15       1.0000    0.68360   0.14590   0.99210   Biso      1.000     C          0.549713  
         C16       1.0000    0.96750   0.57940   0.59570   Biso      1.000     C          0.054191  
         C17       1.0000    0.60750   0.30930   0.30620   Biso      1.000     C          0.102776  
         C18       1.0000    0.76460   0.58490   0.39880   Biso      1.000     C          0.070813  
         C19       1.0000    0.03250   0.42060   0.40430   Biso      1.000     C          0.054149  
         C20       1.0000    0.19760   0.33330   0.40730   Biso      1.000     C          0.651025  
         C21       1.0000    0.84450   0.42760   0.23000   Biso      1.000     C          0.067271  
         C22       1.0000    0.59740   0.76880   0.27790   Biso      1.000     C          0.583087  
         C23       1.0000    0.01490   0.48880   0.80360   Biso      1.000     C          0.663103  
         C24       1.0000    0.90260   0.73120   0.77790   Biso      1.000     C          0.583146  
         C25       1.0000    0.81640   0.35410   0.49210   Biso      1.000     C          0.549666  
         C26       1.0000    0.23540   0.41510   0.60120   Biso      1.000     C          0.070807  
         C27       1.0000    0.58890   0.17240   0.74800   Biso      1.000     C          0.089673  
         C28       1.0000    0.39250   0.69070   0.69380   Biso      1.000     C          0.102382  
         C29       1.0000    0.36570   0.93090   0.05620   Biso      1.000     C          0.030555  
         C30       1.0000    0.06710   0.42690   0.64220   Biso      1.000     C          0.05756   
         C31       1.0000    0.34450   0.92760   0.27000   Biso      1.000     C          0.067254  
         C32       1.0000    0.63430   0.06910   0.94380   Biso      1.000     C          0.030507  
         C33       1.0000    0.31640   0.85410   0.00790   Biso      1.000     C          0.549668  
         C34       1.0000    0.91110   0.32760   0.24800   Biso      1.000     C          0.08971   
         C35       1.0000    0.53250   0.92060   0.09570   Biso      1.000     C          0.054146  
         C36       1.0000    0.89250   0.19070   0.80620   Biso      1.000     C          0.102891  
         C37       1.0000    0.46750   0.07940   0.90430   Biso      1.000     C          0.054144  
         C38       1.0000    0.15550   0.57240   0.77000   Biso      1.000     C          0.067058  
         C39       1.0000    0.02690   0.90120   0.21840   Biso      1.000     C          0.099641  
         C40       1.0000    0.51490   0.98880   0.69640   Biso      1.000     C          0.663138  
         C41       1.0000    0.97310   0.09880   0.78160   Biso      1.000     C          0.099595  
         C42       1.0000    0.73540   0.91510   0.89880   Biso      1.000     C          0.070802  
         C43       1.0000    0.47310   0.59880   0.71840   Biso      1.000     C          0.099511  
         C44       1.0000    0.13430   0.56910   0.55620   Biso      1.000     C          0.03049   
         C45       1.0000    0.98510   0.51120   0.19640   Biso      1.000     C          0.663133  
         C46       1.0000    0.30240   0.16670   0.90730   Biso      1.000     C          0.650998  
         C47       1.0000    0.93290   0.57310   0.35780   Biso      1.000     C          0.057435  
         C48       1.0000    0.52690   0.40120   0.28160   Biso      1.000     C          0.099589  
         Cu1       1.0000    0.50000   0.50000   0.50000   Biso      1.000     Cu          0.783378  
         Cu2       1.0000    0.00000   0.00000   0.00000   Biso      1.000     Cu          0.783119  
         H1        1.0000    0.02950   0.77450   0.16420   Biso      1.000     H          0.11853   
         H2        1.0000    0.67480   0.64290   0.39630   Biso      1.000     H          0.122177  
         H3        1.0000    0.32520   0.35710   0.60370   Biso      1.000     H          0.12216   
         H4        1.0000    0.52950   0.27450   0.33580   Biso      1.000     H          0.118494  
         H5        1.0000    0.95130   0.62340   0.32850   Biso      1.000     H          0.106124  
         H6        1.0000    0.45130   0.12340   0.17150   Biso      1.000     H          0.106063  
         H7        1.0000    0.04870   0.37660   0.67150   Biso      1.000     H          0.106138  
         H8        1.0000    0.17480   0.14290   0.10370   Biso      1.000     H          0.122145  
         H9        1.0000    0.11240   0.07820   0.79210   Biso      1.000     H          0.099951  
         H10       1.0000    0.54870   0.87660   0.82850   Biso      1.000     H          0.106138  
         H11       1.0000    0.61240   0.57820   0.70790   Biso      1.000     H          0.099823  
         H12       1.0000    0.97050   0.22550   0.83580   Biso      1.000     H          0.118555  
         H13       1.0000    0.82520   0.85710   0.89630   Biso      1.000     H          0.122171  
         H14       1.0000    0.88760   0.92180   0.20790   Biso      1.000     H          0.099929  
         H15       1.0000    0.38760   0.42180   0.29210   Biso      1.000     H          0.099905  
         H16       1.0000    0.47050   0.72550   0.66420   Biso      1.000     H          0.118384  
         N1        1.0000    0.64370   0.45990   0.24348   Biso      1.000     N          -0.302234           
         N2        1.0000    0.14370   0.95990   0.25652   Biso      1.000     N          -0.302245           
         N3        1.0000    0.29750   0.77030   0.21226   Biso      1.000     N          -0.3235   
         N4        1.0000    0.23460   0.01350   0.05943   Biso      1.000     N          -0.184785           
         N5        1.0000    0.93530   0.50860   0.63960   Biso      1.000     N          -0.254121           
         N6        1.0000    0.85630   0.04010   0.74348   Biso      1.000     N          -0.302097           
         N7        1.0000    0.76540   0.98650   0.94057   Biso      1.000     N          -0.184827           
         N8        1.0000    0.43530   0.00860   0.86040   Biso      1.000     N          -0.25438  
         N9        1.0000    0.06470   0.49140   0.36040   Biso      1.000     N          -0.254322           
         N10       1.0000    0.79750   0.27030   0.28774   Biso      1.000     N          -0.323517           
         N11       1.0000    0.20250   0.72970   0.71226   Biso      1.000     N          -0.323992           
         N12       1.0000    0.26540   0.48650   0.55943   Biso      1.000     N          -0.18481  
         N13       1.0000    0.56470   0.99140   0.13960   Biso      1.000     N          -0.254435           
         N14       1.0000    0.35630   0.54010   0.75652   Biso      1.000     N          -0.302729           
         N15       1.0000    0.70250   0.22970   0.78774   Biso      1.000     N          -0.323357           
         N16       1.0000    0.73460   0.51350   0.44057   Biso      1.000     N          -0.184759           
         O1        1.0000    0.16320   0.19060   0.25086   Biso      1.000     O          -0.67869  
         O2        1.0000    0.82200   0.11270   0.02879   Biso      1.000     O          -0.543952           
         O3        1.0000    0.68790   0.02170   0.29343   Biso      1.000     O          -0.656153           
         O4        1.0000    0.59270   0.23080   0.99490   Biso      1.000     O          -0.518243           
         O5        1.0000    0.66370   0.79560   0.32599   Biso      1.000     O          -0.499599           
         O6        1.0000    0.64190   0.65020   0.56130   Biso      1.000     O          -0.510882           
         O7        1.0000    0.14190   0.15020   0.93870   Biso      1.000     O          -0.510777           
         O8        1.0000    0.67800   0.38730   0.52879   Biso      1.000     O          -0.543647           
         O9        1.0000    0.83890   0.74740   0.62530   Biso      1.000     O          -0.745724           
         O10       1.0000    0.66110   0.75260   0.12530   Biso      1.000     O          -0.745928           
         O11       1.0000    0.81210   0.47830   0.79343   Biso      1.000     O          -0.656292           
         O12       1.0000    0.85810   0.84980   0.06130   Biso      1.000     O          -0.510687           
         O13       1.0000    0.09270   0.73080   0.50510   Biso      1.000     O          -0.518065           
         O14       1.0000    0.90730   0.26920   0.49490   Biso      1.000     O          -0.518042           
         O15       1.0000    0.66320   0.69060   0.24914   Biso      1.000     O          -0.678706           
         O16       1.0000    0.88110   0.56880   0.16262   Biso      1.000     O          -0.64685  
         O17       1.0000    0.61890   0.93120   0.66262   Biso      1.000     O          -0.646876           
         O18       1.0000    0.16370   0.29560   0.17401   Biso      1.000     O          -0.499481           
         O19       1.0000    0.35810   0.34980   0.43870   Biso      1.000     O          -0.510763           
         O20       1.0000    0.11890   0.43120   0.83738   Biso      1.000     O          -0.647151           
         O21       1.0000    0.33680   0.30940   0.75086   Biso      1.000     O          -0.678586           
         O22       1.0000    0.17800   0.88730   0.97121   Biso      1.000     O          -0.543817           
         O23       1.0000    0.18790   0.52170   0.20657   Biso      1.000     O          -0.656188           
         O24       1.0000    0.16110   0.25260   0.37470   Biso      1.000     O          -0.745846           
         O25       1.0000    0.33890   0.24740   0.87470   Biso      1.000     O          -0.745866           
         O26       1.0000    0.83680   0.80940   0.74914   Biso      1.000     O          -0.678778           
         O27       1.0000    0.32200   0.61270   0.47121   Biso      1.000     O          -0.543797           
         O28       1.0000    0.38110   0.06880   0.33738   Biso      1.000     O          -0.646918           
         O29       1.0000    0.33630   0.20440   0.67401   Biso      1.000     O          -0.499703           
         O30       1.0000    0.40730   0.76920   0.00510   Biso      1.000     O          -0.518206           
         O31       1.0000    0.83630   0.70440   0.82599   Biso      1.000     O          -0.499674           
         O32       1.0000    0.31210   0.97830   0.70657   Biso      1.000     O          -0.656087           
         Tm1       1.0000    0.98983   0.89027   0.67145   Biso      1.000     Tm          2.007575  
         Tm2       1.0000    0.48983   0.39027   0.82855   Biso      1.000     Tm          2.007624  
         Tm3       1.0000    0.01017   0.10973   0.32855   Biso      1.000     Tm          2.007672  
         Tm4       1.0000    0.51017   0.60973   0.17145   Biso      1.000     Tm          2.007732 