
##########################################################################
#               Crystallographic Information Format file
#               Produced by PyCifRW module
#
#  This is a CIF file.  CIF has been adopted by the International
#  Union of Crystallography as the standard for data archiving and
#  transmission.
#
#  For information on this file format, follow the CIF links at
#  http://www.iucr.org
##########################################################################

data_image0

_cell_length_a                          6.0214
_cell_length_b                          12.3151
_cell_length_c                          23.592
_cell_angle_alpha                       90
_cell_angle_beta                        90
_cell_angle_gamma                       94.013
_symmetry_space_group_name_H-M          'P 1'
_symmetry_int_tables_number             1
loop_
  _symmetry_equiv_pos_as_xyz
         'x, y, z' 
loop_
  _atom_site_label
  _atom_site_occupancy
  _atom_site_fract_x
  _atom_site_fract_y
  _atom_site_fract_z
  _atom_site_thermal_displace_type
  _atom_site_B_iso_or_equiv
  _atom_site_type_symbol
  _atom_site_charge
         C1        1.0000    0.19890   0.33130   0.90810   Biso      1.000     C          0.601172  
         C2        1.0000    0.15270   0.57310   0.27030   Biso      1.000     C          0.05466   
         C3        1.0000    0.81560   0.35350   0.99270   Biso      1.000     C          0.5372020000000001  
         C4        1.0000    0.52910   0.40060   0.78150   Biso      1.000     C          0.05803099999999999           
         C5        1.0000    0.89640   0.73140   0.27830   Biso      1.000     C          0.556099  
         C6        1.0000    0.63290   0.07080   0.44420   Biso      1.000     C          0.019847999999999998          
         C7        1.0000    0.47090   0.59940   0.21850   Biso      1.000     C          0.058035  
         C8        1.0000    0.36710   0.92920   0.55580   Biso      1.000     C          0.019847  
         C9        1.0000    0.91450   0.32710   0.74750   Biso      1.000     C          0.058689  
         C10       1.0000    0.97090   0.09940   0.28150   Biso      1.000     C          0.058046  
         C11       1.0000    0.68440   0.14650   0.49270   Biso      1.000     C          0.5372020000000001  
         C12       1.0000    0.69890   0.83130   0.59190   Biso      1.000     C          0.601159  
         C13       1.0000    0.08550   0.67290   0.25250   Biso      1.000     C          0.058691999999999994          
         C14       1.0000    0.56820   0.92900   0.35790   Biso      1.000     C          0.085436  
         C15       1.0000    0.73360   0.91690   0.39810   Biso      1.000     C          0.071603  
         C16       1.0000    0.98640   0.51140   0.69649   Biso      1.000     C          0.594007  
         C17       1.0000    0.30110   0.16870   0.40810   Biso      1.000     C          0.601163  
         C18       1.0000    0.11090   0.80920   0.69400   Biso      1.000     C          0.067819  
         C19       1.0000    0.34730   0.92690   0.77030   Biso      1.000     C          0.054662  
         C20       1.0000    0.18440   0.64650   0.00730   Biso      1.000     C          0.537203  
         C21       1.0000    0.39640   0.23140   0.22170   Biso      1.000     C          0.5561050000000001  
         C22       1.0000    0.76640   0.58310   0.89810   Biso      1.000     C          0.071619  
         C23       1.0000    0.26640   0.08310   0.60190   Biso      1.000     C          0.071603  
         C24       1.0000    0.13290   0.57080   0.05580   Biso      1.000     C          0.019851  
         C25       1.0000    0.96560   0.58160   0.09570   Biso      1.000     C          0.071948  
         C26       1.0000    0.43180   0.07100   0.64210   Biso      1.000     C          0.085436  
         C27       1.0000    0.84730   0.42690   0.72970   Biso      1.000     C          0.054661  
         C28       1.0000    0.02910   0.90060   0.71850   Biso      1.000     C          0.058046  
         C29       1.0000    0.65270   0.07310   0.22970   Biso      1.000     C          0.054662  
         C30       1.0000    0.01360   0.48860   0.30351   Biso      1.000     C          0.594004  
         C31       1.0000    0.31560   0.85350   0.50730   Biso      1.000     C          0.5372020000000001  
         C32       1.0000    0.51360   0.98860   0.19649   Biso      1.000     C          0.594014  
         C33       1.0000    0.58550   0.17290   0.24750   Biso      1.000     C          0.058691999999999994          
         C34       1.0000    0.93180   0.57100   0.85790   Biso      1.000     C          0.08544500000000001           
         C35       1.0000    0.48640   0.01140   0.80351   Biso      1.000     C          0.594012  
         C36       1.0000    0.61090   0.30920   0.80600   Biso      1.000     C          0.067812  
         C37       1.0000    0.38910   0.69080   0.19400   Biso      1.000     C          0.067815  
         C38       1.0000    0.41450   0.82710   0.75250   Biso      1.000     C          0.05869   
         C39       1.0000    0.80110   0.66870   0.09190   Biso      1.000     C          0.601173  
         C40       1.0000    0.06820   0.42900   0.14210   Biso      1.000     C          0.08544700000000001           
         C41       1.0000    0.03440   0.41840   0.90430   Biso      1.000     C          0.071947  
         C42       1.0000    0.53440   0.91840   0.59570   Biso      1.000     C          0.07196   
         C43       1.0000    0.46560   0.08160   0.40430   Biso      1.000     C          0.07196   
         C44       1.0000    0.60360   0.76860   0.77830   Biso      1.000     C          0.5561050000000001  
         C45       1.0000    0.88910   0.19080   0.30600   Biso      1.000     C          0.067821  
         C46       1.0000    0.86710   0.42920   0.94420   Biso      1.000     C          0.01985   
         C47       1.0000    0.23360   0.41690   0.10190   Biso      1.000     C          0.071621  
         C48       1.0000    0.10360   0.26860   0.72170   Biso      1.000     C          0.5560930000000001  
         Cu1       1.0000    0.50000   0.50000   0.00000   Biso      1.000     Cu          0.835824  
         Cu2       1.0000    0.00000   0.00000   0.50000   Biso      1.000     Cu          0.8357559999999999  
         H1        1.0000    0.54940   0.87880   0.32850   Biso      1.000     H          0.12064100000000001           
         H2        1.0000    0.04940   0.37880   0.17150   Biso      1.000     H          0.12065   
         H3        1.0000    0.32370   0.35880   0.10480   Biso      1.000     H          0.129444  
         H4        1.0000    0.03300   0.77440   0.66440   Biso      1.000     H          0.11508199999999999           
         H5        1.0000    0.53300   0.27440   0.83560   Biso      1.000     H          0.11507200000000001           
         H6        1.0000    0.17630   0.14120   0.60480   Biso      1.000     H          0.129438  
         H7        1.0000    0.82370   0.85880   0.39520   Biso      1.000     H          0.129439  
         H8        1.0000    0.39000   0.42150   0.79260   Biso      1.000     H          0.09365599999999999           
         H9        1.0000    0.67630   0.64120   0.89520   Biso      1.000     H          0.129443  
         H10       1.0000    0.45060   0.12120   0.67150   Biso      1.000     H          0.12064000000000001           
         H11       1.0000    0.89000   0.92150   0.70740   Biso      1.000     H          0.093659  
         H12       1.0000    0.11000   0.07850   0.29260   Biso      1.000     H          0.093659  
         H13       1.0000    0.95060   0.62120   0.82850   Biso      1.000     H          0.120649  
         H14       1.0000    0.46700   0.72560   0.16440   Biso      1.000     H          0.115071  
         H15       1.0000    0.61000   0.57850   0.20740   Biso      1.000     H          0.093654  
         H16       1.0000    0.96700   0.22560   0.33560   Biso      1.000     H          0.11508099999999999           
         N1        1.0000    0.26470   0.48660   0.05931   Biso      1.000     N          -0.168711           
         N2        1.0000    0.43480   0.01240   0.36065   Biso      1.000     N          -0.213391           
         N3        1.0000    0.35550   0.54040   0.25749   Biso      1.000     N          -0.221845           
         N4        1.0000    0.80080   0.27010   0.78774   Biso      1.000     N          -0.23129  
         N5        1.0000    0.23530   0.01340   0.55931   Biso      1.000     N          -0.168673           
         N6        1.0000    0.30080   0.77010   0.71226   Biso      1.000     N          -0.231269           
         N7        1.0000    0.56520   0.98760   0.63935   Biso      1.000     N          -0.213392           
         N8        1.0000    0.76470   0.98660   0.44069   Biso      1.000     N          -0.168673           
         N9        1.0000    0.19920   0.72990   0.21226   Biso      1.000     N          -0.23129299999999997          
         N10       1.0000    0.06520   0.48760   0.86065   Biso      1.000     N          -0.213373           
         N11       1.0000    0.69920   0.22990   0.28774   Biso      1.000     N          -0.231262           
         N12       1.0000    0.64450   0.45960   0.74251   Biso      1.000     N          -0.22184600000000002          
         N13       1.0000    0.73530   0.51340   0.94069   Biso      1.000     N          -0.16871  
         N14       1.0000    0.85550   0.04040   0.24251   Biso      1.000     N          -0.22183699999999998          
         N15       1.0000    0.93480   0.51240   0.13935   Biso      1.000     N          -0.213373           
         N16       1.0000    0.14450   0.95960   0.75749   Biso      1.000     N          -0.22184299999999998          
         O1        1.0000    0.17750   0.88600   0.47055   Biso      1.000     O          -0.465942           
         O2        1.0000    0.61570   0.93060   0.16296   Biso      1.000     O          -0.547904           
         O3        1.0000    0.40490   0.76740   0.50483   Biso      1.000     O          -0.39042899999999997          
         O4        1.0000    0.88430   0.56940   0.66296   Biso      1.000     O          -0.54788  
         O5        1.0000    0.64030   0.65270   0.06026   Biso      1.000     O          -0.5248430000000001           
         O6        1.0000    0.19240   0.52230   0.70642   Biso      1.000     O          -0.5866819999999999           
         O7        1.0000    0.82720   0.70340   0.32521   Biso      1.000     O          -0.423559           
         O8        1.0000    0.59510   0.23260   0.49517   Biso      1.000     O          -0.390428           
         O9        1.0000    0.67280   0.79660   0.82521   Biso      1.000     O          -0.42356499999999997          
         O10       1.0000    0.85970   0.84730   0.56026   Biso      1.000     O          -0.524928           
         O11       1.0000    0.82250   0.11400   0.52945   Biso      1.000     O          -0.465942           
         O12       1.0000    0.69240   0.02230   0.79358   Biso      1.000     O          -0.586697           
         O13       1.0000    0.32250   0.61400   0.97055   Biso      1.000     O          -0.465983           
         O14       1.0000    0.66330   0.74860   0.62400   Biso      1.000     O          -0.592384           
         O15       1.0000    0.38430   0.06940   0.83704   Biso      1.000     O          -0.5479   
         O16       1.0000    0.30760   0.97770   0.20642   Biso      1.000     O          -0.586703           
         O17       1.0000    0.16830   0.18990   0.75044   Biso      1.000     O          -0.592242           
         O18       1.0000    0.33170   0.31010   0.25044   Biso      1.000     O          -0.592266           
         O19       1.0000    0.67750   0.38600   0.02945   Biso      1.000     O          -0.46598199999999995          
         O20       1.0000    0.16330   0.24860   0.87600   Biso      1.000     O          -0.5923390000000001           
         O21       1.0000    0.11570   0.43060   0.33704   Biso      1.000     O          -0.54788  
         O22       1.0000    0.33670   0.25140   0.37600   Biso      1.000     O          -0.59239  
         O23       1.0000    0.80760   0.47770   0.29358   Biso      1.000     O          -0.586675           
         O24       1.0000    0.35970   0.34730   0.93974   Biso      1.000     O          -0.524837           
         O25       1.0000    0.66830   0.68990   0.74956   Biso      1.000     O          -0.592258           
         O26       1.0000    0.17280   0.29660   0.67479   Biso      1.000     O          -0.423548           
         O27       1.0000    0.83170   0.81010   0.24956   Biso      1.000     O          -0.592241           
         O28       1.0000    0.14030   0.15270   0.43974   Biso      1.000     O          -0.52493  
         O29       1.0000    0.32720   0.20340   0.17479   Biso      1.000     O          -0.423569           
         O30       1.0000    0.90490   0.26740   0.99517   Biso      1.000     O          -0.390455           
         O31       1.0000    0.09510   0.73260   0.00483   Biso      1.000     O          -0.390457           
         O32       1.0000    0.83670   0.75140   0.12400   Biso      1.000     O          -0.592336           
         Yb1       1.0000    0.98785   0.89021   0.17218   Biso      1.000     Yb          1.305977  
         Yb2       1.0000    0.51215   0.60979   0.67218   Biso      1.000     Yb          1.305985  
         Yb3       1.0000    0.01215   0.10979   0.82782   Biso      1.000     Yb          1.305981  
         Yb4       1.0000    0.48785   0.39021   0.32782   Biso      1.000     Yb          1.30598 