
##########################################################################
#               Crystallographic Information Format file
#               Produced by PyCifRW module
#
#  This is a CIF file.  CIF has been adopted by the International
#  Union of Crystallography as the standard for data archiving and
#  transmission.
#
#  For information on this file format, follow the CIF links at
#  http://www.iucr.org
##########################################################################

data_image0

_cell_length_a                          6.1069
_cell_length_b                          12.1412
_cell_length_c                          22.6025
_cell_angle_alpha                       90
_cell_angle_beta                        90
_cell_angle_gamma                       90.5705
_symmetry_space_group_name_H-M          'P 1'
_symmetry_int_tables_number             1
loop_
  _symmetry_equiv_pos_as_xyz
         'x, y, z' 
loop_
  _atom_site_label
  _atom_site_occupancy
  _atom_site_fract_x
  _atom_site_fract_y
  _atom_site_fract_z
  _atom_site_thermal_displace_type
  _atom_site_B_iso_or_equiv
  _atom_site_type_symbol
  _atom_site_charge
         C1        1.0000    0.82640   0.84610   0.50783   Biso      1.000     C          0.5540149999999999  
         C2        1.0000    0.44050   0.53190   0.14530   Biso      1.000     C          0.059396000000000004          
         C3        1.0000    0.05950   0.96810   0.64530   Biso      1.000     C          0.059397000000000005          
         C4        1.0000    0.23340   0.94720   0.60804   Biso      1.000     C          0.066463  
         C5        1.0000    0.11130   0.11840   0.77157   Biso      1.000     C          0.07552   
         C6        1.0000    0.65990   0.22210   0.26366   Biso      1.000     C          0.582562  
         C7        1.0000    0.95920   0.78460   0.25581   Biso      1.000     C          0.08291699999999999           
         C8        1.0000    0.87660   0.90900   0.45145   Biso      1.000     C          0.028860000000000004          
         C9        1.0000    0.04080   0.21540   0.74419   Biso      1.000     C          0.08291699999999999           
         C10       1.0000    0.97470   0.04360   0.81188   Biso      1.000     C          0.6606529999999999  
         C11       1.0000    0.15990   0.72210   0.23634   Biso      1.000     C          0.582563  
         C12       1.0000    0.17360   0.15390   0.49217   Biso      1.000     C          0.5540149999999999  
         C13       1.0000    0.71950   0.30230   0.07722   Biso      1.000     C          0.645215  
         C14       1.0000    0.47470   0.54360   0.68812   Biso      1.000     C          0.6606529999999999  
         C15       1.0000    0.94050   0.03190   0.35470   Biso      1.000     C          0.059397000000000005          
         C16       1.0000    0.45320   0.61070   0.91292   Biso      1.000     C          0.055092999999999996          
         C17       1.0000    0.26660   0.55280   0.10804   Biso      1.000     C          0.066464  
         C18       1.0000    0.35420   0.22130   0.68920   Biso      1.000     C          0.09715900000000001           
         C19       1.0000    0.73340   0.44720   0.89196   Biso      1.000     C          0.066466  
         C20       1.0000    0.67360   0.65390   0.00783   Biso      1.000     C          0.5540149999999999  
         C21       1.0000    0.88870   0.88160   0.22843   Biso      1.000     C          0.07552400000000001           
         C22       1.0000    0.02530   0.95640   0.18812   Biso      1.000     C          0.6606529999999999  
         C23       1.0000    0.14580   0.27870   0.18920   Biso      1.000     C          0.097161  
         C24       1.0000    0.56630   0.86710   0.27914   Biso      1.000     C          0.096764  
         C25       1.0000    0.55950   0.46810   0.85470   Biso      1.000     C          0.059399  
         C26       1.0000    0.43370   0.13290   0.72086   Biso      1.000     C          0.096763  
         C27       1.0000    0.95320   0.11070   0.58708   Biso      1.000     C          0.055094000000000004          
         C28       1.0000    0.62340   0.59100   0.95145   Biso      1.000     C          0.028863999999999997          
         C29       1.0000    0.04680   0.88930   0.41292   Biso      1.000     C          0.055097  
         C30       1.0000    0.32640   0.34610   0.99217   Biso      1.000     C          0.554014  
         C31       1.0000    0.85420   0.72130   0.81080   Biso      1.000     C          0.097163  
         C32       1.0000    0.21950   0.80230   0.42278   Biso      1.000     C          0.6452140000000001  
         C33       1.0000    0.38870   0.38160   0.27157   Biso      1.000     C          0.075522  
         C34       1.0000    0.93370   0.63290   0.77914   Biso      1.000     C          0.09676599999999999           
         C35       1.0000    0.78050   0.19770   0.57722   Biso      1.000     C          0.645215  
         C36       1.0000    0.64580   0.77870   0.31080   Biso      1.000     C          0.097164  
         C37       1.0000    0.37660   0.40900   0.04855   Biso      1.000     C          0.028860000000000004          
         C38       1.0000    0.52530   0.45640   0.31188   Biso      1.000     C          0.6606529999999999  
         C39       1.0000    0.54680   0.38930   0.08708   Biso      1.000     C          0.055097  
         C40       1.0000    0.12340   0.09100   0.54855   Biso      1.000     C          0.028865  
         C41       1.0000    0.06630   0.36710   0.22086   Biso      1.000     C          0.096765  
         C42       1.0000    0.84010   0.27790   0.76366   Biso      1.000     C          0.582563  
         C43       1.0000    0.28050   0.69770   0.92278   Biso      1.000     C          0.645215  
         C44       1.0000    0.34010   0.77790   0.73634   Biso      1.000     C          0.582563  
         C45       1.0000    0.45920   0.28460   0.24419   Biso      1.000     C          0.082919  
         C46       1.0000    0.76660   0.05280   0.39196   Biso      1.000     C          0.066464  
         C47       1.0000    0.54080   0.71540   0.75581   Biso      1.000     C          0.082919  
         C48       1.0000    0.61130   0.61840   0.72843   Biso      1.000     C          0.07552400000000001           
         Cu1       1.0000    0.00000   0.50000   0.00000   Biso      1.000     Cu          0.7864359999999999  
         Cu2       1.0000    0.50000   0.00000   0.50000   Biso      1.000     Cu          0.786438  
         H1        1.0000    0.43610   0.25000   0.65800   Biso      1.000     H          0.11750999999999999           
         H2        1.0000    0.57380   0.10760   0.71270   Biso      1.000     H          0.098909  
         H3        1.0000    0.93610   0.75000   0.84200   Biso      1.000     H          0.11751400000000001           
         H4        1.0000    0.67030   0.10930   0.38310   Biso      1.000     H          0.12001500000000001           
         H5        1.0000    0.06390   0.25000   0.15800   Biso      1.000     H          0.11751199999999999           
         H6        1.0000    0.53880   0.42330   0.82180   Biso      1.000     H          0.104217  
         H7        1.0000    0.46120   0.57670   0.17820   Biso      1.000     H          0.104218  
         H8        1.0000    0.32970   0.89070   0.61690   Biso      1.000     H          0.12001700000000001           
         H9        1.0000    0.03880   0.92330   0.67820   Biso      1.000     H          0.104219  
         H10       1.0000    0.42620   0.89240   0.28730   Biso      1.000     H          0.098912  
         H11       1.0000    0.82970   0.39070   0.88310   Biso      1.000     H          0.12001500000000001           
         H12       1.0000    0.96120   0.07670   0.32180   Biso      1.000     H          0.104217  
         H13       1.0000    0.56390   0.75000   0.34200   Biso      1.000     H          0.117513  
         H14       1.0000    0.17030   0.60930   0.11690   Biso      1.000     H          0.12001500000000001           
         H15       1.0000    0.92620   0.39240   0.21270   Biso      1.000     H          0.098911  
         H16       1.0000    0.07380   0.60760   0.78730   Biso      1.000     H          0.098913  
         N1        1.0000    0.68410   0.91710   0.23738   Biso      1.000     N          -0.299297           
         N2        1.0000    0.41990   0.55050   0.86417   Biso      1.000     N          -0.248736           
         N3        1.0000    0.66150   0.76640   0.79728   Biso      1.000     N          -0.313335           
         N4        1.0000    0.31590   0.08290   0.76262   Biso      1.000     N          -0.299299           
         N5        1.0000    0.08010   0.94950   0.36417   Biso      1.000     N          -0.24873800000000001          
         N6        1.0000    0.16150   0.26640   0.70272   Biso      1.000     N          -0.313338           
         N7        1.0000    0.58010   0.44950   0.13583   Biso      1.000     N          -0.24873699999999999          
         N8        1.0000    0.73600   0.99260   0.44030   Biso      1.000     N          -0.192825           
         N9        1.0000    0.18410   0.41710   0.26262   Biso      1.000     N          -0.299297           
         N10       1.0000    0.83850   0.73360   0.29728   Biso      1.000     N          -0.313336           
         N11       1.0000    0.23600   0.49260   0.05970   Biso      1.000     N          -0.192825           
         N12       1.0000    0.81590   0.58290   0.73738   Biso      1.000     N          -0.299295           
         N13       1.0000    0.26400   0.00740   0.55970   Biso      1.000     N          -0.192826           
         N14       1.0000    0.33850   0.23360   0.20272   Biso      1.000     N          -0.313337           
         N15       1.0000    0.76400   0.50740   0.94030   Biso      1.000     N          -0.192826           
         N16       1.0000    0.91990   0.05050   0.63583   Biso      1.000     N          -0.24873499999999998          
         O1        1.0000    0.19960   0.71420   0.39495   Biso      1.000     O          -0.729925           
         O2        1.0000    0.75940   0.25370   0.81225   Biso      1.000     O          -0.511347           
         O3        1.0000    0.18260   0.38930   0.95909   Biso      1.000     O          -0.525316           
         O4        1.0000    0.12530   0.67090   0.95527   Biso      1.000     O          -0.529935           
         O5        1.0000    0.31740   0.11070   0.45909   Biso      1.000     O          -0.525319           
         O6        1.0000    0.87470   0.32910   0.04473   Biso      1.000     O          -0.529934           
         O7        1.0000    0.07280   0.23980   0.48249   Biso      1.000     O          -0.55833  
         O8        1.0000    0.92090   0.99640   0.14486   Biso      1.000     O          -0.672663           
         O9        1.0000    0.81740   0.61070   0.04091   Biso      1.000     O          -0.525319           
         O10       1.0000    0.07910   0.00360   0.85514   Biso      1.000     O          -0.672667           
         O11       1.0000    0.68260   0.88930   0.54091   Biso      1.000     O          -0.5253180000000001           
         O12       1.0000    0.78279   0.02079   0.79880   Biso      1.000     O          -0.6269399999999999           
         O13       1.0000    0.21721   0.97921   0.20120   Biso      1.000     O          -0.626937           
         O14       1.0000    0.57910   0.50360   0.64486   Biso      1.000     O          -0.672663           
         O15       1.0000    0.42090   0.49640   0.35514   Biso      1.000     O          -0.672664           
         O16       1.0000    0.92720   0.76020   0.51751   Biso      1.000     O          -0.5583319999999999           
         O17       1.0000    0.69960   0.21420   0.10505   Biso      1.000     O          -0.729924           
         O18       1.0000    0.27890   0.85370   0.77015   Biso      1.000     O          -0.6571640000000001           
         O19       1.0000    0.24060   0.74630   0.18775   Biso      1.000     O          -0.511343           
         O20       1.0000    0.22110   0.64630   0.27015   Biso      1.000     O          -0.6571640000000001           
         O21       1.0000    0.28279   0.52079   0.70120   Biso      1.000     O          -0.6269359999999999           
         O22       1.0000    0.62530   0.17090   0.54473   Biso      1.000     O          -0.529937           
         O23       1.0000    0.72110   0.14630   0.22985   Biso      1.000     O          -0.657165           
         O24       1.0000    0.25940   0.75370   0.68775   Biso      1.000     O          -0.511343           
         O25       1.0000    0.80040   0.28580   0.60505   Biso      1.000     O          -0.729923           
         O26       1.0000    0.71721   0.47921   0.29880   Biso      1.000     O          -0.626938           
         O27       1.0000    0.57280   0.73980   0.01751   Biso      1.000     O          -0.558333           
         O28       1.0000    0.77890   0.35370   0.72985   Biso      1.000     O          -0.657168           
         O29       1.0000    0.42720   0.26020   0.98249   Biso      1.000     O          -0.558327           
         O30       1.0000    0.37470   0.82910   0.45527   Biso      1.000     O          -0.529935           
         O31       1.0000    0.30040   0.78580   0.89495   Biso      1.000     O          -0.729923           
         O32       1.0000    0.74060   0.24630   0.31225   Biso      1.000     O          -0.511343           
         Sm1       1.0000    0.54582   0.05695   0.14910   Biso      1.000     Sm          2.027313  
         Sm2       1.0000    0.04582   0.55695   0.35090   Biso      1.000     Sm          2.027313  
         Sm3       1.0000    0.95418   0.44305   0.64910   Biso      1.000     Sm          2.027305  
         Sm4       1.0000    0.45418   0.94305   0.85090   Biso      1.000     Sm          2.027303 