
##########################################################################
#               Crystallographic Information Format file
#               Produced by PyCifRW module
#
#  This is a CIF file.  CIF has been adopted by the International
#  Union of Crystallography as the standard for data archiving and
#  transmission.
#
#  For information on this file format, follow the CIF links at
#  http://www.iucr.org
##########################################################################

data_image0

_cell_length_a                          6.0853
_cell_length_b                          12.404
_cell_length_c                          23.497
_cell_angle_alpha                       90
_cell_angle_beta                        90
_cell_angle_gamma                       94.5152
_symmetry_space_group_name_H-M          'P 1'
_symmetry_int_tables_number             1
loop_
  _symmetry_equiv_pos_as_xyz
         'x, y, z' 
loop_
  _atom_site_label
  _atom_site_occupancy
  _atom_site_fract_x
  _atom_site_fract_y
  _atom_site_fract_z
  _atom_site_thermal_displace_type
  _atom_site_B_iso_or_equiv
  _atom_site_type_symbol
  _atom_site_charge
         C1        1.0000    0.09050   0.76820   0.77870   Biso      1.000     C          0.5772079999999999  
         C2        1.0000    0.23630   0.91360   0.39880   Biso      1.000     C          0.073137  
         C3        1.0000    0.42730   0.57640   0.85840   Biso      1.000     C          0.055111  
         C4        1.0000    0.19290   0.83900   0.59440   Biso      1.000     C          0.635165  
         C5        1.0000    0.59450   0.67250   0.25190   Biso      1.000     C          0.074294  
         C6        1.0000    0.90950   0.23180   0.22130   Biso      1.000     C          0.5772079999999999  
         C7        1.0000    0.13430   0.06580   0.44340   Biso      1.000     C          0.030514999999999997          
         C8        1.0000    0.47190   0.09830   0.28240   Biso      1.000     C          0.088848  
         C9        1.0000    0.40950   0.73180   0.27870   Biso      1.000     C          0.5772079999999999  
         C10       1.0000    0.51810   0.48970   0.30400   Biso      1.000     C          0.648524  
         C11       1.0000    0.48190   0.51030   0.69600   Biso      1.000     C          0.648524  
         C12       1.0000    0.84160   0.92740   0.77020   Biso      1.000     C          0.050036000000000004          
         C13       1.0000    0.18410   0.14240   0.49240   Biso      1.000     C          0.543559  
         C14       1.0000    0.52810   0.90170   0.71760   Biso      1.000     C          0.088848  
         C15       1.0000    0.46750   0.57520   0.09690   Biso      1.000     C          0.056447000000000004          
         C16       1.0000    0.02810   0.40170   0.78240   Biso      1.000     C          0.088848  
         C17       1.0000    0.60540   0.81030   0.69300   Biso      1.000     C          0.092554  
         C18       1.0000    0.92730   0.07640   0.64160   Biso      1.000     C          0.055111  
         C19       1.0000    0.81590   0.85760   0.50760   Biso      1.000     C          0.543559  
         C20       1.0000    0.40550   0.32750   0.74810   Biso      1.000     C          0.074294  
         C21       1.0000    0.10540   0.31030   0.80700   Biso      1.000     C          0.092553  
         C22       1.0000    0.01810   0.98970   0.19600   Biso      1.000     C          0.648523  
         C23       1.0000    0.57270   0.42360   0.14160   Biso      1.000     C          0.055111  
         C24       1.0000    0.96750   0.07520   0.40310   Biso      1.000     C          0.056447000000000004          
         C25       1.0000    0.89460   0.68970   0.19300   Biso      1.000     C          0.092554  
         C26       1.0000    0.73630   0.41360   0.10120   Biso      1.000     C          0.073138  
         C27       1.0000    0.80710   0.16100   0.40560   Biso      1.000     C          0.635165  
         C28       1.0000    0.98190   0.01030   0.80400   Biso      1.000     C          0.648523  
         C29       1.0000    0.65840   0.57260   0.27020   Biso      1.000     C          0.050035  
         C30       1.0000    0.86570   0.93420   0.55660   Biso      1.000     C          0.030514999999999997          
         C31       1.0000    0.09450   0.17250   0.24810   Biso      1.000     C          0.074293  
         C32       1.0000    0.34160   0.42740   0.72980   Biso      1.000     C          0.050033999999999995          
         C33       1.0000    0.68410   0.64240   0.00760   Biso      1.000     C          0.543559  
         C34       1.0000    0.76370   0.08640   0.60120   Biso      1.000     C          0.073139  
         C35       1.0000    0.59050   0.26820   0.72130   Biso      1.000     C          0.5772079999999999  
         C36       1.0000    0.31590   0.35760   0.99240   Biso      1.000     C          0.543559  
         C37       1.0000    0.63430   0.56580   0.05660   Biso      1.000     C          0.030514999999999997          
         C38       1.0000    0.90550   0.82750   0.75190   Biso      1.000     C          0.074293  
         C39       1.0000    0.39460   0.18970   0.30700   Biso      1.000     C          0.092553  
         C40       1.0000    0.69290   0.33900   0.90560   Biso      1.000     C          0.635165  
         C41       1.0000    0.53250   0.42480   0.90310   Biso      1.000     C          0.056448000000000005          
         C42       1.0000    0.15840   0.07260   0.22980   Biso      1.000     C          0.050035  
         C43       1.0000    0.30710   0.66100   0.09440   Biso      1.000     C          0.635165  
         C44       1.0000    0.26370   0.58640   0.89880   Biso      1.000     C          0.073138  
         C45       1.0000    0.36570   0.43420   0.94340   Biso      1.000     C          0.030514999999999997          
         C46       1.0000    0.03250   0.92480   0.59690   Biso      1.000     C          0.056447000000000004          
         C47       1.0000    0.07270   0.92360   0.35840   Biso      1.000     C          0.055113  
         C48       1.0000    0.97190   0.59830   0.21760   Biso      1.000     C          0.08884700000000001           
         Cu1       1.0000    0.00000   0.50000   0.00000   Biso      1.000     Cu          0.779004  
         Cu2       1.0000    0.50000   0.00000   0.50000   Biso      1.000     Cu          0.779004  
         H1        1.0000    0.97220   0.72360   0.16300   Biso      1.000     H          0.114224  
         H2        1.0000    0.10900   0.57730   0.20650   Biso      1.000     H          0.097847  
         H3        1.0000    0.05660   0.87310   0.32910   Biso      1.000     H          0.10339100000000001           
         H4        1.0000    0.44340   0.62690   0.82910   Biso      1.000     H          0.10339000000000001           
         H5        1.0000    0.52780   0.77640   0.66300   Biso      1.000     H          0.114225  
         H6        1.0000    0.47220   0.22360   0.33700   Biso      1.000     H          0.114224  
         H7        1.0000    0.55660   0.37310   0.17090   Biso      1.000     H          0.10339000000000001           
         H8        1.0000    0.94340   0.12690   0.67090   Biso      1.000     H          0.10339000000000001           
         H9        1.0000    0.82540   0.35620   0.10340   Biso      1.000     H          0.12033800000000001           
         H10       1.0000    0.39100   0.92270   0.70650   Biso      1.000     H          0.097847  
         H11       1.0000    0.89100   0.42270   0.79350   Biso      1.000     H          0.097847  
         H12       1.0000    0.67460   0.14380   0.60340   Biso      1.000     H          0.12033699999999999           
         H13       1.0000    0.60900   0.07730   0.29350   Biso      1.000     H          0.097847  
         H14       1.0000    0.32540   0.85620   0.39660   Biso      1.000     H          0.12033800000000001           
         H15       1.0000    0.02780   0.27640   0.83700   Biso      1.000     H          0.114224  
         H16       1.0000    0.17460   0.64380   0.89660   Biso      1.000     H          0.12033800000000001           
         N1        1.0000    0.76650   0.48420   0.05980   Biso      1.000     N          -0.184712           
         N2        1.0000    0.64200   0.95990   0.75590   Biso      1.000     N          -0.26065  
         N3        1.0000    0.56280   0.49620   0.86010   Biso      1.000     N          -0.254023           
         N4        1.0000    0.14200   0.45990   0.74410   Biso      1.000     N          -0.26065  
         N5        1.0000    0.06280   0.99620   0.63990   Biso      1.000     N          -0.25402399999999997          
         N6        1.0000    0.43720   0.50380   0.13990   Biso      1.000     N          -0.254023           
         N7        1.0000    0.78970   0.77040   0.71170   Biso      1.000     N          -0.27576999999999996          
         N8        1.0000    0.23350   0.51580   0.94020   Biso      1.000     N          -0.184712           
         N9        1.0000    0.73350   0.01580   0.55980   Biso      1.000     N          -0.18471300000000002          
         N10       1.0000    0.85800   0.54010   0.25590   Biso      1.000     N          -0.26064899999999996          
         N11       1.0000    0.93720   0.00380   0.36010   Biso      1.000     N          -0.254023           
         N12       1.0000    0.71030   0.72960   0.21170   Biso      1.000     N          -0.27576999999999996          
         N13       1.0000    0.26650   0.98420   0.44020   Biso      1.000     N          -0.18471300000000002          
         N14       1.0000    0.28970   0.27040   0.78830   Biso      1.000     N          -0.27576999999999996          
         N15       1.0000    0.21030   0.22960   0.28830   Biso      1.000     N          -0.27576999999999996          
         N16       1.0000    0.35800   0.04010   0.24410   Biso      1.000     N          -0.26065  
         O1        1.0000    0.34690   0.70520   0.32693   Biso      1.000     O          -0.505162           
         O2        1.0000    0.84690   0.20520   0.17307   Biso      1.000     O          -0.505162           
         O3        1.0000    0.84490   0.30870   0.25040   Biso      1.000     O          -0.6351140000000001           
         O4        1.0000    0.65570   0.25990   0.87250   Biso      1.000     O          -0.677219           
         O5        1.0000    0.40910   0.27290   0.99516   Biso      1.000     O          -0.531844           
         O6        1.0000    0.18390   0.02160   0.79412   Biso      1.000     O          -0.5982069999999999           
         O7        1.0000    0.37940   0.56780   0.66249   Biso      1.000     O          -0.6004729999999999           
         O8        1.0000    0.64480   0.14570   0.43720   Biso      1.000     O          -0.522453           
         O9        1.0000    0.14480   0.64570   0.06280   Biso      1.000     O          -0.522453           
         O10       1.0000    0.87940   0.06780   0.83751   Biso      1.000     O          -0.6004729999999999           
         O11       1.0000    0.35520   0.85430   0.56280   Biso      1.000     O          -0.522452           
         O12       1.0000    0.17580   0.38610   0.02814   Biso      1.000     O          -0.525165           
         O13       1.0000    0.82420   0.61390   0.97186   Biso      1.000     O          -0.525166           
         O14       1.0000    0.34430   0.74010   0.12750   Biso      1.000     O          -0.677219           
         O15       1.0000    0.15570   0.75990   0.62750   Biso      1.000     O          -0.6772199999999999           
         O16       1.0000    0.31610   0.47840   0.29412   Biso      1.000     O          -0.598208           
         O17       1.0000    0.32420   0.11390   0.52814   Biso      1.000     O          -0.525166           
         O18       1.0000    0.62060   0.43220   0.33751   Biso      1.000     O          -0.6004729999999999           
         O19       1.0000    0.68390   0.52160   0.70588   Biso      1.000     O          -0.598208           
         O20       1.0000    0.12060   0.93220   0.16249   Biso      1.000     O          -0.6004729999999999           
         O21       1.0000    0.65510   0.19130   0.75040   Biso      1.000     O          -0.6351140000000001           
         O22       1.0000    0.65310   0.29480   0.67307   Biso      1.000     O          -0.505161           
         O23       1.0000    0.84430   0.24010   0.37250   Biso      1.000     O          -0.677219           
         O24       1.0000    0.81610   0.97840   0.20588   Biso      1.000     O          -0.598208           
         O25       1.0000    0.09090   0.22710   0.49516   Biso      1.000     O          -0.531844           
         O26       1.0000    0.85520   0.35430   0.93720   Biso      1.000     O          -0.522452           
         O27       1.0000    0.15310   0.79480   0.82693   Biso      1.000     O          -0.505161           
         O28       1.0000    0.90910   0.77290   0.50484   Biso      1.000     O          -0.531844           
         O29       1.0000    0.59090   0.72710   0.00484   Biso      1.000     O          -0.531844           
         O30       1.0000    0.67580   0.88610   0.47186   Biso      1.000     O          -0.525165           
         O31       1.0000    0.34490   0.80870   0.24960   Biso      1.000     O          -0.6351140000000001           
         O32       1.0000    0.15510   0.69130   0.74960   Biso      1.000     O          -0.6351140000000001           
         Y1        1.0000    0.50876   0.10925   0.83121   Biso      1.000     Y          1.820096  
         Y2        1.0000    0.99124   0.39075   0.33121   Biso      1.000     Y          1.820095  
         Y3        1.0000    0.49124   0.89075   0.16879   Biso      1.000     Y          1.820093  
         Y4        1.0000    0.00876   0.60925   0.66879   Biso      1.000     Y          1.8200939999999999 