
##########################################################################
#               Crystallographic Information Format file
#               Produced by PyCifRW module
#
#  This is a CIF file.  CIF has been adopted by the International
#  Union of Crystallography as the standard for data archiving and
#  transmission.
#
#  For information on this file format, follow the CIF links at
#  http://www.iucr.org
##########################################################################

data_image0

_cell_length_a                          6.1389
_cell_length_b                          12.2192
_cell_length_c                          22.728
_cell_angle_alpha                       90
_cell_angle_beta                        90
_cell_angle_gamma                       89.581
_symmetry_space_group_name_H-M          'P 1'
_symmetry_int_tables_number             1
loop_
  _symmetry_equiv_pos_as_xyz
         'x, y, z' 
loop_
  _atom_site_label
  _atom_site_occupancy
  _atom_site_fract_x
  _atom_site_fract_y
  _atom_site_fract_z
  _atom_site_thermal_displace_type
  _atom_site_B_iso_or_equiv
  _atom_site_type_symbol
  _atom_site_charge
         C1        1.0000    0.06420   0.53070   0.35460   Biso      1.000     C          0.05464   
         C2        1.0000    0.34160   0.72210   0.26340   Biso      1.000     C          0.580584  
         C3        1.0000    0.73450   0.05120   0.10810   Biso      1.000     C          0.067345  
         C4        1.0000    0.37460   0.08970   0.95180   Biso      1.000     C          0.030694  
         C5        1.0000    0.06620   0.13240   0.77900   Biso      1.000     C          0.09213400000000001           
         C6        1.0000    0.67250   0.84790   0.99200   Biso      1.000     C          0.553995  
         C7        1.0000    0.61240   0.88060   0.27130   Biso      1.000     C          0.078588  
         C8        1.0000    0.43380   0.36760   0.27900   Biso      1.000     C          0.092133  
         C9        1.0000    0.43580   0.96930   0.85460   Biso      1.000     C          0.054640999999999995          
         C10       1.0000    0.04360   0.28400   0.25590   Biso      1.000     C          0.082858  
         C11       1.0000    0.65840   0.27790   0.73660   Biso      1.000     C          0.580584  
         C12       1.0000    0.17250   0.34790   0.50800   Biso      1.000     C          0.553995  
         C13       1.0000    0.14580   0.22160   0.81070   Biso      1.000     C          0.092266  
         C14       1.0000    0.52210   0.04610   0.68850   Biso      1.000     C          0.655528  
         C15       1.0000    0.26550   0.94880   0.89190   Biso      1.000     C          0.067352  
         C16       1.0000    0.93380   0.86760   0.22100   Biso      1.000     C          0.09213400000000001           
         C17       1.0000    0.95490   0.38990   0.41330   Biso      1.000     C          0.056750999999999996          
         C18       1.0000    0.02210   0.54610   0.81150   Biso      1.000     C          0.655528  
         C19       1.0000    0.56420   0.03070   0.14540   Biso      1.000     C          0.05464600000000001           
         C20       1.0000    0.38760   0.11940   0.72870   Biso      1.000     C          0.078588  
         C21       1.0000    0.93580   0.46930   0.64540   Biso      1.000     C          0.054640999999999995          
         C22       1.0000    0.56620   0.63240   0.72100   Biso      1.000     C          0.092132  
         C23       1.0000    0.82750   0.65210   0.49200   Biso      1.000     C          0.553995  
         C24       1.0000    0.54360   0.78400   0.24410   Biso      1.000     C          0.08286   
         C25       1.0000    0.87460   0.58970   0.54820   Biso      1.000     C          0.030695  
         C26       1.0000    0.88760   0.61940   0.77130   Biso      1.000     C          0.078587  
         C27       1.0000    0.64580   0.72160   0.68930   Biso      1.000     C          0.092265  
         C28       1.0000    0.04510   0.61010   0.58670   Biso      1.000     C          0.056750999999999996          
         C29       1.0000    0.71850   0.19560   0.92350   Biso      1.000     C          0.6367109999999999  
         C30       1.0000    0.12540   0.41030   0.45180   Biso      1.000     C          0.030694  
         C31       1.0000    0.85420   0.77840   0.18930   Biso      1.000     C          0.092266  
         C32       1.0000    0.32750   0.15210   0.00800   Biso      1.000     C          0.553995  
         C33       1.0000    0.45490   0.88990   0.08670   Biso      1.000     C          0.05675   
         C34       1.0000    0.54510   0.11010   0.91330   Biso      1.000     C          0.05675   
         C35       1.0000    0.84160   0.22210   0.23660   Biso      1.000     C          0.580585  
         C36       1.0000    0.15840   0.77790   0.76340   Biso      1.000     C          0.580584  
         C37       1.0000    0.35420   0.27840   0.31070   Biso      1.000     C          0.092266  
         C38       1.0000    0.95640   0.71600   0.74410   Biso      1.000     C          0.08286   
         C39       1.0000    0.47790   0.95390   0.31150   Biso      1.000     C          0.655528  
         C40       1.0000    0.23450   0.55120   0.39190   Biso      1.000     C          0.067351  
         C41       1.0000    0.97790   0.45390   0.18850   Biso      1.000     C          0.655528  
         C42       1.0000    0.28150   0.80440   0.07650   Biso      1.000     C          0.6367109999999999  
         C43       1.0000    0.45640   0.21600   0.75590   Biso      1.000     C          0.08286   
         C44       1.0000    0.21850   0.69560   0.57650   Biso      1.000     C          0.63671   
         C45       1.0000    0.62540   0.91030   0.04820   Biso      1.000     C          0.030694  
         C46       1.0000    0.11240   0.38060   0.22870   Biso      1.000     C          0.07858899999999999           
         C47       1.0000    0.78150   0.30440   0.42350   Biso      1.000     C          0.636709  
         C48       1.0000    0.76550   0.44880   0.60810   Biso      1.000     C          0.067351  
         Cu1       1.0000    0.00000   0.00000   0.00000   Biso      1.000     Cu          0.7863979999999999  
         Cu2       1.0000    0.50000   0.50000   0.50000   Biso      1.000     Cu          0.786395  
         H1        1.0000    0.16990   0.89240   0.88320   Biso      1.000     H          0.118249  
         H2        1.0000    0.66990   0.39240   0.61680   Biso      1.000     H          0.11825   
         H3        1.0000    0.54580   0.07440   0.17850   Biso      1.000     H          0.106154  
         H4        1.0000    0.93620   0.74930   0.15860   Biso      1.000     H          0.117247  
         H5        1.0000    0.04580   0.57440   0.32150   Biso      1.000     H          0.106156  
         H6        1.0000    0.43620   0.24930   0.34140   Biso      1.000     H          0.117247  
         H7        1.0000    0.56380   0.75070   0.65860   Biso      1.000     H          0.117246  
         H8        1.0000    0.06380   0.25070   0.84140   Biso      1.000     H          0.117248  
         H9        1.0000    0.07270   0.89340   0.21270   Biso      1.000     H          0.102144  
         H10       1.0000    0.42730   0.60660   0.71270   Biso      1.000     H          0.102144  
         H11       1.0000    0.83010   0.10760   0.11680   Biso      1.000     H          0.118249  
         H12       1.0000    0.45420   0.92560   0.82150   Biso      1.000     H          0.106155  
         H13       1.0000    0.33010   0.60760   0.38320   Biso      1.000     H          0.11825   
         H14       1.0000    0.57270   0.39340   0.28730   Biso      1.000     H          0.102145  
         H15       1.0000    0.92730   0.10660   0.78730   Biso      1.000     H          0.102145  
         H16       1.0000    0.95420   0.42560   0.67850   Biso      1.000     H          0.106156  
         N1        1.0000    0.26590   0.49210   0.44024   Biso      1.000     N          -0.189729           
         N2        1.0000    0.66190   0.73440   0.20269   Biso      1.000     N          -0.311044           
         N3        1.0000    0.76590   0.99210   0.05976   Biso      1.000     N          -0.189729           
         N4        1.0000    0.33810   0.26560   0.79731   Biso      1.000     N          -0.31104299999999996          
         N5        1.0000    0.16190   0.23440   0.29731   Biso      1.000     N          -0.31104299999999996          
         N6        1.0000    0.81530   0.91680   0.26285   Biso      1.000     N          -0.298377           
         N7        1.0000    0.68470   0.58320   0.76285   Biso      1.000     N          -0.298377           
         N8        1.0000    0.42290   0.94940   0.13530   Biso      1.000     N          -0.24857600000000002          
         N9        1.0000    0.73410   0.50790   0.55976   Biso      1.000     N          -0.189729           
         N10       1.0000    0.57710   0.05060   0.86470   Biso      1.000     N          -0.248575           
         N11       1.0000    0.07710   0.55060   0.63530   Biso      1.000     N          -0.248573           
         N12       1.0000    0.23410   0.00790   0.94024   Biso      1.000     N          -0.18972999999999998          
         N13       1.0000    0.83810   0.76560   0.70269   Biso      1.000     N          -0.311044           
         N14       1.0000    0.92290   0.44940   0.36470   Biso      1.000     N          -0.248574           
         N15       1.0000    0.31530   0.41680   0.23715   Biso      1.000     N          -0.298377           
         N16       1.0000    0.18470   0.08320   0.73715   Biso      1.000     N          -0.29837600000000003          
         O1        1.0000    0.62560   0.32980   0.45569   Biso      1.000     O          -0.5245989999999999           
         O2        1.0000    0.19810   0.78500   0.60389   Biso      1.000     O          -0.732002           
         O3        1.0000    0.27900   0.64800   0.22989   Biso      1.000     O          -0.649046           
         O4        1.0000    0.72100   0.35200   0.77011   Biso      1.000     O          -0.649046           
         O5        1.0000    0.78680   0.47750   0.20192   Biso      1.000     O          -0.629119           
         O6        1.0000    0.30190   0.71500   0.10389   Biso      1.000     O          -0.732004           
         O7        1.0000    0.07030   0.26400   0.51816   Biso      1.000     O          -0.550824           
         O8        1.0000    0.73720   0.25400   0.68804   Biso      1.000     O          -0.516302           
         O9        1.0000    0.26280   0.74600   0.31196   Biso      1.000     O          -0.516301           
         O10       1.0000    0.69810   0.28500   0.89611   Biso      1.000     O          -0.732004           
         O11       1.0000    0.81880   0.89080   0.95939   Biso      1.000     O          -0.529985           
         O12       1.0000    0.37440   0.67020   0.54431   Biso      1.000     O          -0.524601           
         O13       1.0000    0.92970   0.73600   0.48184   Biso      1.000     O          -0.550823           
         O14       1.0000    0.07810   0.49160   0.14491   Biso      1.000     O          -0.666139           
         O15       1.0000    0.21320   0.52250   0.79808   Biso      1.000     O          -0.62912  
         O16       1.0000    0.68120   0.60920   0.45939   Biso      1.000     O          -0.529984           
         O17       1.0000    0.76280   0.24600   0.18804   Biso      1.000     O          -0.5163   
         O18       1.0000    0.71320   0.02250   0.70192   Biso      1.000     O          -0.629119           
         O19       1.0000    0.42190   0.00840   0.64491   Biso      1.000     O          -0.666141           
         O20       1.0000    0.42970   0.23600   0.01816   Biso      1.000     O          -0.550825           
         O21       1.0000    0.12560   0.82980   0.04431   Biso      1.000     O          -0.5246   
         O22       1.0000    0.57810   0.99160   0.35509   Biso      1.000     O          -0.666141           
         O23       1.0000    0.92190   0.50840   0.85509   Biso      1.000     O          -0.66614  
         O24       1.0000    0.80190   0.21500   0.39611   Biso      1.000     O          -0.732003           
         O25       1.0000    0.28680   0.97750   0.29808   Biso      1.000     O          -0.62912  
         O26       1.0000    0.18120   0.10920   0.04061   Biso      1.000     O          -0.529986           
         O27       1.0000    0.77900   0.14800   0.27011   Biso      1.000     O          -0.649046           
         O28       1.0000    0.22100   0.85200   0.72989   Biso      1.000     O          -0.649047           
         O29       1.0000    0.31880   0.39080   0.54061   Biso      1.000     O          -0.529983           
         O30       1.0000    0.57030   0.76400   0.98184   Biso      1.000     O          -0.550824           
         O31       1.0000    0.87440   0.17020   0.95569   Biso      1.000     O          -0.524601           
         O32       1.0000    0.23720   0.75400   0.81196   Biso      1.000     O          -0.516301           
         Pr1       1.0000    0.95700   0.05641   0.35151   Biso      1.000     Pr          2.026648  
         Pr2       1.0000    0.45700   0.55641   0.14849   Biso      1.000     Pr          2.02665   
         Pr3       1.0000    0.04300   0.94359   0.64849   Biso      1.000     Pr          2.0266450000000003  
         Pr4       1.0000    0.54300   0.44359   0.85151   Biso      1.000     Pr          2.0266439999999997 