
##########################################################################
#               Crystallographic Information Format file
#               Produced by PyCifRW module
#
#  This is a CIF file.  CIF has been adopted by the International
#  Union of Crystallography as the standard for data archiving and
#  transmission.
#
#  For information on this file format, follow the CIF links at
#  http://www.iucr.org
##########################################################################

data_image0

_cell_length_a                          6.0812
_cell_length_b                          12.3887
_cell_length_c                          23.472
_cell_angle_alpha                       90
_cell_angle_beta                        90
_cell_angle_gamma                       94.3221
_symmetry_space_group_name_H-M          'P 1'
_symmetry_int_tables_number             1
loop_
  _symmetry_equiv_pos_as_xyz
         'x, y, z' 
loop_
  _atom_site_label
  _atom_site_occupancy
  _atom_site_fract_x
  _atom_site_fract_y
  _atom_site_fract_z
  _atom_site_thermal_displace_type
  _atom_site_B_iso_or_equiv
  _atom_site_type_symbol
  _atom_site_charge
         C1        1.0000    0.92850   0.07520   0.85820   Biso      1.000     C          0.057401  
         C2        1.0000    0.48390   0.51030   0.80390   Biso      1.000     C          0.635746  
         C3        1.0000    0.58990   0.26790   0.77820   Biso      1.000     C          0.589824  
         C4        1.0000    0.97450   0.59850   0.28260   Biso      1.000     C          0.086879  
         C5        1.0000    0.73520   0.41400   0.39850   Biso      1.000     C          0.06453099999999999           
         C6        1.0000    0.90490   0.82660   0.74820   Biso      1.000     C          0.074641  
         C7        1.0000    0.13610   0.06600   0.05640   Biso      1.000     C          0.032408  
         C8        1.0000    0.42850   0.57520   0.64180   Biso      1.000     C          0.057401  
         C9        1.0000    0.65840   0.57290   0.22980   Biso      1.000     C          0.037814  
         C10       1.0000    0.91010   0.23210   0.27820   Biso      1.000     C          0.589828  
         C11       1.0000    0.41010   0.73210   0.22180   Biso      1.000     C          0.589828  
         C12       1.0000    0.86390   0.93400   0.94360   Biso      1.000     C          0.032409  
         C13       1.0000    0.36390   0.43400   0.55640   Biso      1.000     C          0.032409  
         C14       1.0000    0.15840   0.07290   0.27020   Biso      1.000     C          0.037813  
         C15       1.0000    0.53280   0.42510   0.59650   Biso      1.000     C          0.065877  
         C16       1.0000    0.30600   0.66280   0.40550   Biso      1.000     C          0.642492  
         C17       1.0000    0.09510   0.17340   0.25180   Biso      1.000     C          0.074633  
         C18       1.0000    0.76480   0.08600   0.89850   Biso      1.000     C          0.06453099999999999           
         C19       1.0000    0.02550   0.40150   0.71740   Biso      1.000     C          0.086892  
         C20       1.0000    0.31830   0.35610   0.50740   Biso      1.000     C          0.544561  
         C21       1.0000    0.46720   0.57490   0.40350   Biso      1.000     C          0.065874  
         C22       1.0000    0.84160   0.92710   0.72980   Biso      1.000     C          0.037819  
         C23       1.0000    0.51610   0.48970   0.19610   Biso      1.000     C          0.6357430000000001  
         C24       1.0000    0.23520   0.91400   0.10150   Biso      1.000     C          0.06453099999999999           
         C25       1.0000    0.08990   0.76790   0.72180   Biso      1.000     C          0.589823  
         C26       1.0000    0.03280   0.92510   0.90350   Biso      1.000     C          0.065877  
         C27       1.0000    0.57150   0.42480   0.35820   Biso      1.000     C          0.057414  
         C28       1.0000    0.96720   0.07490   0.09650   Biso      1.000     C          0.065874  
         C29       1.0000    0.19400   0.83720   0.90550   Biso      1.000     C          0.642491  
         C30       1.0000    0.39370   0.19050   0.19290   Biso      1.000     C          0.107196  
         C31       1.0000    0.80600   0.16280   0.09450   Biso      1.000     C          0.642491  
         C32       1.0000    0.69400   0.33720   0.59450   Biso      1.000     C          0.642491  
         C33       1.0000    0.89370   0.69050   0.30710   Biso      1.000     C          0.107196  
         C34       1.0000    0.26480   0.58600   0.60150   Biso      1.000     C          0.06453099999999999           
         C35       1.0000    0.63610   0.56600   0.44360   Biso      1.000     C          0.032408  
         C36       1.0000    0.34160   0.42710   0.77020   Biso      1.000     C          0.037819  
         C37       1.0000    0.40490   0.32660   0.75180   Biso      1.000     C          0.07464   
         C38       1.0000    0.59510   0.67340   0.24820   Biso      1.000     C          0.074633  
         C39       1.0000    0.52550   0.90150   0.78260   Biso      1.000     C          0.086892  
         C40       1.0000    0.18170   0.14390   0.00740   Biso      1.000     C          0.544562  
         C41       1.0000    0.47450   0.09850   0.21740   Biso      1.000     C          0.086878  
         C42       1.0000    0.68170   0.64390   0.49260   Biso      1.000     C          0.544564  
         C43       1.0000    0.98390   0.01030   0.69610   Biso      1.000     C          0.635746  
         C44       1.0000    0.07150   0.92480   0.14180   Biso      1.000     C          0.057414  
         C45       1.0000    0.60630   0.80950   0.80710   Biso      1.000     C          0.107207  
         C46       1.0000    0.10630   0.30950   0.69290   Biso      1.000     C          0.107206  
         C47       1.0000    0.01610   0.98970   0.30390   Biso      1.000     C          0.6357430000000001  
         C48       1.0000    0.81830   0.85610   0.99260   Biso      1.000     C          0.544559  
         Cu1       1.0000    0.00000   0.50000   0.50000   Biso      1.000     Cu          0.790289  
         Cu2       1.0000    0.50000   0.00000   0.00000   Biso      1.000     Cu          0.790285  
         H1        1.0000    0.90490   0.57610   0.13980   Biso      1.000     H          0.434605  
         H2        1.0000    0.65760   0.59280   0.88530   Biso      1.000     H          0.432738  
         H3        1.0000    0.37150   0.89830   0.63960   Biso      1.000     H          0.466815  
         H4        1.0000    0.21250   0.15170   0.56360   Biso      1.000     H          0.499522  
         H5        1.0000    0.67550   0.14350   0.89590   Biso      1.000     H          0.11579600000000001           
         H6        1.0000    0.55540   0.37470   0.32870   Biso      1.000     H          0.100102  
         H7        1.0000    0.12850   0.60170   0.13960   Biso      1.000     H          0.46681300000000003           
         H8        1.0000    0.84240   0.90720   0.38530   Biso      1.000     H          0.43272700000000003           
         H9        1.0000    0.87150   0.39830   0.86040   Biso      1.000     H          0.466815  
         H10       1.0000    0.53020   0.77510   0.83720   Biso      1.000     H          0.11369000000000001           
         H11       1.0000    0.88770   0.42230   0.70660   Biso      1.000     H          0.102623  
         H12       1.0000    0.40490   0.07610   0.36020   Biso      1.000     H          0.434604  
         H13       1.0000    0.17550   0.64350   0.60410   Biso      1.000     H          0.115797  
         H14       1.0000    0.82450   0.35650   0.39590   Biso      1.000     H          0.11580399999999999           
         H15       1.0000    0.46980   0.22490   0.16280   Biso      1.000     H          0.113685  
         H16       1.0000    0.11230   0.57770   0.29340   Biso      1.000     H          0.10262   
         H17       1.0000    0.96980   0.72490   0.33720   Biso      1.000     H          0.113685  
         H18       1.0000    0.38770   0.92230   0.79340   Biso      1.000     H          0.102623  
         H19       1.0000    0.34240   0.40720   0.11470   Biso      1.000     H          0.432726  
         H20       1.0000    0.09510   0.42390   0.86020   Biso      1.000     H          0.43461099999999997           
         H21       1.0000    0.94460   0.12530   0.82870   Biso      1.000     H          0.100088  
         H22       1.0000    0.44460   0.62530   0.67130   Biso      1.000     H          0.100089  
         H23       1.0000    0.78750   0.84830   0.43640   Biso      1.000     H          0.499485  
         H24       1.0000    0.28750   0.34830   0.06360   Biso      1.000     H          0.499485  
         H25       1.0000    0.71250   0.65170   0.93640   Biso      1.000     H          0.499522  
         H26       1.0000    0.32450   0.85650   0.10410   Biso      1.000     H          0.115803  
         H27       1.0000    0.59510   0.92390   0.63980   Biso      1.000     H          0.43461099999999997           
         H28       1.0000    0.62850   0.10170   0.36040   Biso      1.000     H          0.46681300000000003           
         H29       1.0000    0.61230   0.07770   0.20660   Biso      1.000     H          0.10262   
         H30       1.0000    0.03020   0.27510   0.66280   Biso      1.000     H          0.11369000000000001           
         H31       1.0000    0.15760   0.09280   0.61470   Biso      1.000     H          0.432738  
         H32       1.0000    0.05540   0.87470   0.17130   Biso      1.000     H          0.100102  
         Ho1       1.0000    0.00869   0.60917   0.83100   Biso      1.000     Ho          1.9891849999999998  
         Ho2       1.0000    0.49131   0.89083   0.33100   Biso      1.000     Ho          1.9891450000000002  
         Ho3       1.0000    0.99131   0.39083   0.16900   Biso      1.000     Ho          1.9891450000000002  
         Ho4       1.0000    0.50869   0.10917   0.66900   Biso      1.000     Ho          1.9891849999999998  
         N1        1.0000    0.85630   0.53980   0.24390   Biso      1.000     N          -0.305089           
         N2        1.0000    0.70990   0.72960   0.28800   Biso      1.000     N          -0.292587           
         N3        1.0000    0.06190   0.99610   0.86020   Biso      1.000     N          -0.252722           
         N4        1.0000    0.93810   0.00390   0.13980   Biso      1.000     N          -0.252704           
         N5        1.0000    0.35630   0.03980   0.25610   Biso      1.000     N          -0.305089           
         N6        1.0000    0.56190   0.49610   0.63980   Biso      1.000     N          -0.252722           
         N7        1.0000    0.64370   0.96020   0.74390   Biso      1.000     N          -0.305081           
         N8        1.0000    0.76510   0.48430   0.44040   Biso      1.000     N          -0.182246           
         N9        1.0000    0.20990   0.22960   0.21200   Biso      1.000     N          -0.292586           
         N10       1.0000    0.14370   0.46020   0.75610   Biso      1.000     N          -0.305081           
         N11       1.0000    0.43810   0.50390   0.36020   Biso      1.000     N          -0.252704           
         N12       1.0000    0.29010   0.27040   0.71200   Biso      1.000     N          -0.292575           
         N13       1.0000    0.26510   0.98430   0.05960   Biso      1.000     N          -0.18224500000000002          
         N14       1.0000    0.23490   0.51570   0.55960   Biso      1.000     N          -0.18223499999999998          
         N15       1.0000    0.79010   0.77040   0.78800   Biso      1.000     N          -0.292575           
         N16       1.0000    0.73490   0.01570   0.94040   Biso      1.000     N          -0.18223399999999998          
         O1        1.0000    0.87920   0.06770   0.66230   Biso      1.000     O          -0.641256           
         O2        1.0000    0.91070   0.77180   0.99570   Biso      1.000     O          -0.512145           
         O3        1.0000    0.65690   0.25960   0.62740   Biso      1.000     O          -0.7025939999999999           
         O4        1.0000    0.34690   0.70510   0.17300   Biso      1.000     O          -0.540009           
         O5        1.0000    0.41070   0.27180   0.50430   Biso      1.000     O          -0.5121439999999999           
         O6        1.0000    0.58930   0.72820   0.49570   Biso      1.000     O          -0.512149           
         O7        1.0000    0.34310   0.74040   0.37260   Biso      1.000     O          -0.702573           
         O8        1.0000    0.52560   0.06120   0.37560   Biso      1.000     O          -0.8663649999999999           
         O9        1.0000    0.15690   0.75960   0.87260   Biso      1.000     O          -0.702595           
         O10       1.0000    0.24510   0.14080   0.59910   Biso      1.000     O          -0.8985569999999999           
         O11       1.0000    0.15310   0.79490   0.67300   Biso      1.000     O          -0.539981           
         O12       1.0000    0.67550   0.88610   0.02840   Biso      1.000     O          -0.543589           
         O13       1.0000    0.68410   0.52100   0.79360   Biso      1.000     O          -0.629008           
         O14       1.0000    0.02560   0.56120   0.12440   Biso      1.000     O          -0.8663649999999999           
         O15       1.0000    0.65310   0.29490   0.82700   Biso      1.000     O          -0.539982           
         O16       1.0000    0.84310   0.24040   0.12740   Biso      1.000     O          -0.702574           
         O17       1.0000    0.34250   0.80920   0.25010   Biso      1.000     O          -0.674461           
         O18       1.0000    0.14490   0.64630   0.43740   Biso      1.000     O          -0.548976           
         O19       1.0000    0.37920   0.56770   0.83770   Biso      1.000     O          -0.641256           
         O20       1.0000    0.82450   0.61390   0.52840   Biso      1.000     O          -0.543616           
         O21       1.0000    0.97440   0.43880   0.87560   Biso      1.000     O          -0.86634  
         O22       1.0000    0.12080   0.93230   0.33770   Biso      1.000     O          -0.641266           
         O23       1.0000    0.85510   0.35370   0.56260   Biso      1.000     O          -0.54896  
         O24       1.0000    0.35510   0.85370   0.93740   Biso      1.000     O          -0.548958           
         O25       1.0000    0.74510   0.64080   0.90090   Biso      1.000     O          -0.8985569999999999           
         O26       1.0000    0.25490   0.35920   0.09910   Biso      1.000     O          -0.898558           
         O27       1.0000    0.84690   0.20510   0.32700   Biso      1.000     O          -0.540009           
         O28       1.0000    0.75490   0.85920   0.40090   Biso      1.000     O          -0.898558           
         O29       1.0000    0.18410   0.02100   0.70640   Biso      1.000     O          -0.629008           
         O30       1.0000    0.64490   0.14630   0.06260   Biso      1.000     O          -0.548974           
         O31       1.0000    0.32450   0.11390   0.97160   Biso      1.000     O          -0.543614           
         O32       1.0000    0.47440   0.93880   0.62440   Biso      1.000     O          -0.86634  
         O33       1.0000    0.15750   0.69080   0.75010   Biso      1.000     O          -0.674454           
         O34       1.0000    0.17550   0.38610   0.47160   Biso      1.000     O          -0.5435909999999999           
         O35       1.0000    0.31590   0.47900   0.20640   Biso      1.000     O          -0.629016           
         O36       1.0000    0.65750   0.19080   0.74990   Biso      1.000     O          -0.674454           
         O37       1.0000    0.08930   0.22820   0.00430   Biso      1.000     O          -0.51215  
         O38       1.0000    0.81590   0.97900   0.29360   Biso      1.000     O          -0.629016           
         O39       1.0000    0.84250   0.30920   0.24990   Biso      1.000     O          -0.674461           
         O40       1.0000    0.62080   0.43230   0.16230   Biso      1.000     O          -0.641266 