
##########################################################################
#               Crystallographic Information Format file
#               Produced by PyCifRW module
#
#  This is a CIF file.  CIF has been adopted by the International
#  Union of Crystallography as the standard for data archiving and
#  transmission.
#
#  For information on this file format, follow the CIF links at
#  http://www.iucr.org
##########################################################################

data_image0

_cell_length_a                          6.1635
_cell_length_b                          12.2872
_cell_length_c                          22.826
_cell_angle_alpha                       90
_cell_angle_beta                        90
_cell_angle_gamma                       89.6458
_symmetry_space_group_name_H-M          'P 1'
_symmetry_int_tables_number             1
loop_
  _symmetry_equiv_pos_as_xyz
         'x, y, z' 
loop_
  _atom_site_label
  _atom_site_occupancy
  _atom_site_fract_x
  _atom_site_fract_y
  _atom_site_fract_z
  _atom_site_thermal_displace_type
  _atom_site_B_iso_or_equiv
  _atom_site_type_symbol
  _atom_site_charge
         C1        1.0000    0.43270   0.86770   0.27944   Biso      1.000     C          0.087753  
         C2        1.0000    0.12600   0.91080   0.45203   Biso      1.000     C          0.031827999999999995          
         C3        1.0000    0.71590   0.69450   0.92453   Biso      1.000     C          0.6315029999999999  
         C4        1.0000    0.43410   0.46970   0.85529   Biso      1.000     C          0.05539500000000001           
         C5        1.0000    0.95450   0.89050   0.41405   Biso      1.000     C          0.058414  
         C6        1.0000    0.37400   0.58920   0.95203   Biso      1.000     C          0.031863  
         C7        1.0000    0.38650   0.61990   0.72883   Biso      1.000     C          0.071036  
         C8        1.0000    0.02220   0.04720   0.81140   Biso      1.000     C          0.636786  
         C9        1.0000    0.47780   0.45280   0.31140   Biso      1.000     C          0.636804  
         C10       1.0000    0.45450   0.39050   0.08595   Biso      1.000     C          0.058404  
         C11       1.0000    0.87400   0.08920   0.54797   Biso      1.000     C          0.031831  
         C12       1.0000    0.78410   0.80550   0.42453   Biso      1.000     C          0.631508  
         C13       1.0000    0.93410   0.96970   0.64471   Biso      1.000     C          0.05545599999999999           
         C14       1.0000    0.21590   0.19450   0.57547   Biso      1.000     C          0.631505  
         C15       1.0000    0.93270   0.36770   0.22056   Biso      1.000     C          0.08777   
         C16       1.0000    0.45650   0.71600   0.75566   Biso      1.000     C          0.076842  
         C17       1.0000    0.82610   0.14970   0.49176   Biso      1.000     C          0.556037  
         C18       1.0000    0.04550   0.10950   0.58595   Biso      1.000     C          0.058415999999999996          
         C19       1.0000    0.06730   0.63230   0.77944   Biso      1.000     C          0.087766  
         C20       1.0000    0.61350   0.38010   0.27117   Biso      1.000     C          0.071037  
         C21       1.0000    0.32610   0.64970   0.00824   Biso      1.000     C          0.556063  
         C22       1.0000    0.97780   0.95280   0.18860   Biso      1.000     C          0.63679   
         C23       1.0000    0.54350   0.28400   0.24434   Biso      1.000     C          0.076847  
         C24       1.0000    0.73760   0.55160   0.10769   Biso      1.000     C          0.062568  
         C25       1.0000    0.17390   0.85030   0.50824   Biso      1.000     C          0.556038  
         C26       1.0000    0.04350   0.78400   0.25566   Biso      1.000     C          0.076859  
         C27       1.0000    0.64520   0.22060   0.68964   Biso      1.000     C          0.08417100000000001           
         C28       1.0000    0.35480   0.77940   0.31036   Biso      1.000     C          0.08417899999999999           
         C29       1.0000    0.85480   0.27940   0.18964   Biso      1.000     C          0.08421000000000001           
         C30       1.0000    0.76240   0.94840   0.60769   Biso      1.000     C          0.062586  
         C31       1.0000    0.62600   0.41080   0.04797   Biso      1.000     C          0.031863  
         C32       1.0000    0.56730   0.13230   0.72056   Biso      1.000     C          0.08775   
         C33       1.0000    0.52220   0.54720   0.68860   Biso      1.000     C          0.636799  
         C34       1.0000    0.15630   0.27670   0.76386   Biso      1.000     C          0.5715859999999999  
         C35       1.0000    0.34370   0.22330   0.26386   Biso      1.000     C          0.5715979999999999  
         C36       1.0000    0.14520   0.72060   0.81036   Biso      1.000     C          0.084208  
         C37       1.0000    0.11350   0.88010   0.22883   Biso      1.000     C          0.07105299999999999           
         C38       1.0000    0.26240   0.44840   0.89231   Biso      1.000     C          0.062569  
         C39       1.0000    0.06590   0.03030   0.35529   Biso      1.000     C          0.055448000000000004          
         C40       1.0000    0.65630   0.77670   0.73614   Biso      1.000     C          0.571601  
         C41       1.0000    0.67390   0.35030   0.99176   Biso      1.000     C          0.5560649999999999  
         C42       1.0000    0.23760   0.05160   0.39231   Biso      1.000     C          0.062587  
         C43       1.0000    0.28410   0.30550   0.07547   Biso      1.000     C          0.631506  
         C44       1.0000    0.95650   0.21600   0.74434   Biso      1.000     C          0.07685299999999999           
         C45       1.0000    0.88650   0.11990   0.77117   Biso      1.000     C          0.071049  
         C46       1.0000    0.54550   0.60950   0.91405   Biso      1.000     C          0.05840700000000001           
         C47       1.0000    0.56590   0.53030   0.14471   Biso      1.000     C          0.055389999999999995          
         C48       1.0000    0.84370   0.72330   0.23614   Biso      1.000     C          0.571587  
         Cu1       1.0000    0.00000   0.50000   0.00000   Biso      1.000     Cu          0.786497  
         Cu2       1.0000    0.50000   0.00000   0.50000   Biso      1.000     Cu          0.786554  
         H1        1.0000    0.95290   0.92650   0.67780   Biso      1.000     H          0.104073  
         H2        1.0000    0.93670   0.25040   0.15910   Biso      1.000     H          0.11564400000000001           
         H3        1.0000    0.04710   0.07350   0.32220   Biso      1.000     H          0.104064  
         H4        1.0000    0.07060   0.39370   0.21210   Biso      1.000     H          0.100521  
         H5        1.0000    0.57060   0.89370   0.28790   Biso      1.000     H          0.10053200000000001           
         H6        1.0000    0.33310   0.10770   0.38370   Biso      1.000     H          0.121999  
         H7        1.0000    0.92940   0.60630   0.78790   Biso      1.000     H          0.10052   
         H8        1.0000    0.42940   0.10630   0.71210   Biso      1.000     H          0.10053   
         H9        1.0000    0.06330   0.74960   0.84090   Biso      1.000     H          0.115639  
         H10       1.0000    0.56330   0.24960   0.65910   Biso      1.000     H          0.115658  
         H11       1.0000    0.83310   0.60770   0.11630   Biso      1.000     H          0.122023  
         H12       1.0000    0.43670   0.75040   0.34090   Biso      1.000     H          0.115665  
         H13       1.0000    0.16690   0.39230   0.88370   Biso      1.000     H          0.122029  
         H14       1.0000    0.45290   0.42650   0.82220   Biso      1.000     H          0.104124  
         H15       1.0000    0.66690   0.89230   0.61630   Biso      1.000     H          0.12200699999999999           
         H16       1.0000    0.54710   0.57350   0.17780   Biso      1.000     H          0.104119  
         La1       1.0000    0.04130   0.44370   0.64795   Biso      1.000     La          1.917056  
         La2       1.0000    0.45870   0.05630   0.14795   Biso      1.000     La          1.917159  
         La3       1.0000    0.95870   0.55630   0.35205   Biso      1.000     La          1.917157  
         La4       1.0000    0.54130   0.94370   0.85205   Biso      1.000     La          1.917084  
         N1        1.0000    0.68410   0.08360   0.76211   Biso      1.000     N          -0.275708           
         N2        1.0000    0.16330   0.73490   0.29701   Biso      1.000     N          -0.28688800000000003          
         N3        1.0000    0.18410   0.58360   0.73789   Biso      1.000     N          -0.27571  
         N4        1.0000    0.33670   0.76510   0.79701   Biso      1.000     N          -0.28688800000000003          
         N5        1.0000    0.92540   0.94950   0.36523   Biso      1.000     N          -0.252273           
         N6        1.0000    0.81590   0.41640   0.26211   Biso      1.000     N          -0.275715           
         N7        1.0000    0.23390   0.50860   0.94062   Biso      1.000     N          -0.192181           
         N8        1.0000    0.83670   0.26510   0.70299   Biso      1.000     N          -0.28688400000000003          
         N9        1.0000    0.42540   0.44950   0.13477   Biso      1.000     N          -0.252271           
         N10       1.0000    0.57460   0.55050   0.86523   Biso      1.000     N          -0.252264           
         N11       1.0000    0.76610   0.49140   0.05938   Biso      1.000     N          -0.192174           
         N12       1.0000    0.26610   0.99140   0.44062   Biso      1.000     N          -0.192201           
         N13       1.0000    0.73390   0.00860   0.55938   Biso      1.000     N          -0.192207           
         N14       1.0000    0.31590   0.91640   0.23789   Biso      1.000     N          -0.27570700000000004          
         N15       1.0000    0.07460   0.05050   0.63477   Biso      1.000     N          -0.252264           
         N16       1.0000    0.66330   0.23490   0.20299   Biso      1.000     N          -0.28689000000000003          
         O1        1.0000    0.62770   0.83150   0.45599   Biso      1.000     O          -0.53075  
         O2        1.0000    0.18210   0.60860   0.04018   Biso      1.000     O          -0.520308           
         O3        1.0000    0.71120   0.52340   0.70271   Biso      1.000     O          -0.593623           
         O4        1.0000    0.68210   0.10860   0.45982   Biso      1.000     O          -0.520315           
         O5        1.0000    0.56850   0.26670   0.98170   Biso      1.000     O          -0.560623           
         O6        1.0000    0.80460   0.71740   0.39717   Biso      1.000     O          -0.688712           
         O7        1.0000    0.93150   0.23330   0.48170   Biso      1.000     O          -0.560596           
         O8        1.0000    0.69540   0.78260   0.89717   Biso      1.000     O          -0.688688           
         O9        1.0000    0.31790   0.89140   0.54018   Biso      1.000     O          -0.520299           
         O10       1.0000    0.78880   0.97660   0.20271   Biso      1.000     O          -0.593625           
         O11       1.0000    0.43150   0.73330   0.01830   Biso      1.000     O          -0.5606399999999999           
         O12       1.0000    0.26840   0.24590   0.31250   Biso      1.000     O          -0.5097010000000001           
         O13       1.0000    0.87230   0.66850   0.95599   Biso      1.000     O          -0.530763           
         O14       1.0000    0.30460   0.21740   0.10283   Biso      1.000     O          -0.688696           
         O15       1.0000    0.27700   0.14950   0.23017   Biso      1.000     O          -0.631419           
         O16       1.0000    0.12770   0.33150   0.04401   Biso      1.000     O          -0.5307430000000001           
         O17       1.0000    0.42270   0.51080   0.64467   Biso      1.000     O          -0.634554           
         O18       1.0000    0.57730   0.48920   0.35533   Biso      1.000     O          -0.634546           
         O19       1.0000    0.81790   0.39140   0.95982   Biso      1.000     O          -0.520291           
         O20       1.0000    0.06850   0.76670   0.51830   Biso      1.000     O          -0.560582           
         O21       1.0000    0.23160   0.25410   0.81250   Biso      1.000     O          -0.5097109999999999           
         O22       1.0000    0.73160   0.75410   0.68750   Biso      1.000     O          -0.5097109999999999           
         O23       1.0000    0.19540   0.28260   0.60283   Biso      1.000     O          -0.6886979999999999           
         O24       1.0000    0.77700   0.64950   0.26983   Biso      1.000     O          -0.631402           
         O25       1.0000    0.07730   0.98920   0.14467   Biso      1.000     O          -0.634537           
         O26       1.0000    0.37230   0.16850   0.54401   Biso      1.000     O          -0.5307689999999999           
         O27       1.0000    0.76840   0.74590   0.18750   Biso      1.000     O          -0.50969  
         O28       1.0000    0.92270   0.01080   0.85533   Biso      1.000     O          -0.634548           
         O29       1.0000    0.72300   0.85050   0.76983   Biso      1.000     O          -0.63142  
         O30       1.0000    0.22300   0.35050   0.73017   Biso      1.000     O          -0.631405           
         O31       1.0000    0.28880   0.47660   0.29729   Biso      1.000     O          -0.593623           
         O32       1.0000    0.21120   0.02340   0.79729   Biso      1.000     O          -0.593627 