
##########################################################################
#               Crystallographic Information Format file
#               Produced by PyCifRW module
#
#  This is a CIF file.  CIF has been adopted by the International
#  Union of Crystallography as the standard for data archiving and
#  transmission.
#
#  For information on this file format, follow the CIF links at
#  http://www.iucr.org
##########################################################################

data_image0

_cell_length_a                          6.128
_cell_length_b                          12.193
_cell_length_c                          22.675
_cell_angle_alpha                       90
_cell_angle_beta                        90
_cell_angle_gamma                       89.683
_symmetry_space_group_name_H-M          'P 1'
_symmetry_int_tables_number             1
loop_
  _symmetry_equiv_pos_as_xyz
         'x, y, z' 
loop_
  _atom_site_label
  _atom_site_occupancy
  _atom_site_fract_x
  _atom_site_fract_y
  _atom_site_fract_z
  _atom_site_thermal_displace_type
  _atom_site_B_iso_or_equiv
  _atom_site_type_symbol
  _atom_site_charge
         C1        1.0000    0.56430   0.53070   0.85470   Biso      1.000     C          0.054662  
         C2        1.0000    0.54650   0.61030   0.08730   Biso      1.000     C          0.061005  
         C3        1.0000    0.38340   0.62010   0.27370   Biso      1.000     C          0.067569  
         C4        1.0000    0.56720   0.13120   0.28010   Biso      1.000     C          0.098626  
         C5        1.0000    0.34040   0.22360   0.73670   Biso      1.000     C          0.582469  
         C6        1.0000    0.15960   0.27640   0.23670   Biso      1.000     C          0.582465  
         C7        1.0000    0.95350   0.88970   0.58730   Biso      1.000     C          0.061005  
         C8        1.0000    0.23410   0.05190   0.60840   Biso      1.000     C          0.063981  
         C9        1.0000    0.96070   0.21390   0.25580   Biso      1.000     C          0.080386  
         C10       1.0000    0.97760   0.95430   0.81270   Biso      1.000     C          0.658838  
         C11       1.0000    0.53930   0.28610   0.75580   Biso      1.000     C          0.080379  
         C12       1.0000    0.93280   0.36880   0.78010   Biso      1.000     C          0.098643  
         C13       1.0000    0.46070   0.71390   0.24420   Biso      1.000     C          0.080378  
         C14       1.0000    0.43280   0.86880   0.71990   Biso      1.000     C          0.09863   
         C15       1.0000    0.14480   0.72370   0.19040   Biso      1.000     C          0.100678  
         C16       1.0000    0.93570   0.96930   0.35470   Biso      1.000     C          0.054695  
         C17       1.0000    0.73410   0.55190   0.89160   Biso      1.000     C          0.063984  
         C18       1.0000    0.82370   0.15130   0.50800   Biso      1.000     C          0.553828  
         C19       1.0000    0.61660   0.37990   0.72630   Biso      1.000     C          0.067572  
         C20       1.0000    0.62680   0.41000   0.95120   Biso      1.000     C          0.031953  
         C21       1.0000    0.65960   0.77640   0.26330   Biso      1.000     C          0.582474  
         C22       1.0000    0.67630   0.34870   0.00800   Biso      1.000     C          0.553831  
         C23       1.0000    0.64480   0.22370   0.30960   Biso      1.000     C          0.100669  
         C24       1.0000    0.17630   0.84870   0.49200   Biso      1.000     C          0.553828  
         C25       1.0000    0.76590   0.94810   0.39160   Biso      1.000     C          0.063991  
         C26       1.0000    0.87320   0.09000   0.45120   Biso      1.000     C          0.031952  
         C27       1.0000    0.37320   0.59000   0.04880   Biso      1.000     C          0.031955  
         C28       1.0000    0.35520   0.77630   0.69040   Biso      1.000     C          0.100672  
         C29       1.0000    0.26590   0.44810   0.10840   Biso      1.000     C          0.063969  
         C30       1.0000    0.12680   0.91000   0.54880   Biso      1.000     C          0.031951  
         C31       1.0000    0.32370   0.65130   0.99200   Biso      1.000     C          0.553831  
         C32       1.0000    0.85520   0.27630   0.80960   Biso      1.000     C          0.100681  
         C33       1.0000    0.03930   0.78610   0.74420   Biso      1.000     C          0.080387  
         C34       1.0000    0.43570   0.46930   0.14530   Biso      1.000     C          0.054681  
         C35       1.0000    0.45350   0.38970   0.91270   Biso      1.000     C          0.061004  
         C36       1.0000    0.28240   0.30280   0.92380   Biso      1.000     C          0.639161  
         C37       1.0000    0.06430   0.03070   0.64530   Biso      1.000     C          0.054702  
         C38       1.0000    0.84040   0.72360   0.76330   Biso      1.000     C          0.58246   
         C39       1.0000    0.02240   0.04570   0.18730   Biso      1.000     C          0.658836  
         C40       1.0000    0.06720   0.63120   0.21990   Biso      1.000     C          0.098639  
         C41       1.0000    0.52240   0.54570   0.31270   Biso      1.000     C          0.658834  
         C42       1.0000    0.21760   0.19720   0.42380   Biso      1.000     C          0.63915   
         C43       1.0000    0.78240   0.80280   0.57620   Biso      1.000     C          0.639155  
         C44       1.0000    0.47760   0.45430   0.68730   Biso      1.000     C          0.658836  
         C45       1.0000    0.04650   0.11030   0.41270   Biso      1.000     C          0.061006  
         C46       1.0000    0.11660   0.87990   0.77370   Biso      1.000     C          0.067583  
         C47       1.0000    0.71760   0.69720   0.07620   Biso      1.000     C          0.639158  
         C48       1.0000    0.88340   0.12010   0.22630   Biso      1.000     C          0.067581  
         Cu1       1.0000    0.50000   0.00000   0.50000   Biso      1.000     Cu          0.78477   
         Cu2       1.0000    0.00000   0.50000   0.00000   Biso      1.000     Cu          0.784755  
         H1        1.0000    0.32920   0.10890   0.61700   Biso      1.000     H          0.119226  
         H2        1.0000    0.07040   0.39570   0.78930   Biso      1.000     H          0.101369  
         H3        1.0000    0.42960   0.10430   0.28930   Biso      1.000     H          0.10137   
         H4        1.0000    0.05840   0.75690   0.16170   Biso      1.000     H          0.115174  
         H5        1.0000    0.45470   0.42590   0.17860   Biso      1.000     H          0.104643  
         H6        1.0000    0.54530   0.57410   0.82140   Biso      1.000     H          0.104639  
         H7        1.0000    0.17080   0.39110   0.11700   Biso      1.000     H          0.119211  
         H8        1.0000    0.55840   0.25690   0.33830   Biso      1.000     H          0.115169  
         H9        1.0000    0.94160   0.24310   0.83830   Biso      1.000     H          0.115177  
         H10       1.0000    0.82920   0.60890   0.88300   Biso      1.000     H          0.119204  
         H11       1.0000    0.95470   0.92590   0.32140   Biso      1.000     H          0.10467   
         H12       1.0000    0.57040   0.89570   0.71070   Biso      1.000     H          0.10137   
         H13       1.0000    0.44160   0.74310   0.66170   Biso      1.000     H          0.115171  
         H14       1.0000    0.04530   0.07410   0.67860   Biso      1.000     H          0.104665  
         H15       1.0000    0.92960   0.60430   0.21070   Biso      1.000     H          0.101368  
         H16       1.0000    0.67080   0.89110   0.38300   Biso      1.000     H          0.119232  
         N1        1.0000    0.76540   0.49180   0.93970   Biso      1.000     N          -0.190281           
         N2        1.0000    0.23460   0.50820   0.06030   Biso      1.000     N          -0.190281           
         N3        1.0000    0.07840   0.05090   0.36500   Biso      1.000     N          -0.246976           
         N4        1.0000    0.57840   0.55090   0.13500   Biso      1.000     N          -0.24701  
         N5        1.0000    0.92160   0.94910   0.63500   Biso      1.000     N          -0.246981           
         N6        1.0000    0.26540   0.99180   0.56030   Biso      1.000     N          -0.190274           
         N7        1.0000    0.66050   0.23500   0.79750   Biso      1.000     N          -0.312392           
         N8        1.0000    0.83950   0.26500   0.29750   Biso      1.000     N          -0.312385           
         N9        1.0000    0.31450   0.91850   0.76060   Biso      1.000     N          -0.292546           
         N10       1.0000    0.81450   0.41850   0.73940   Biso      1.000     N          -0.292553           
         N11       1.0000    0.18550   0.58150   0.26060   Biso      1.000     N          -0.292555           
         N12       1.0000    0.16050   0.73500   0.70250   Biso      1.000     N          -0.312384           
         N13       1.0000    0.42160   0.44910   0.86500   Biso      1.000     N          -0.247013           
         N14       1.0000    0.33950   0.76500   0.20250   Biso      1.000     N          -0.312393           
         N15       1.0000    0.73460   0.00820   0.43970   Biso      1.000     N          -0.190277           
         N16       1.0000    0.68550   0.08150   0.23940   Biso      1.000     N          -0.292547           
         Nd1       1.0000    0.04396   0.44335   0.35130   Biso      1.000     Nd          2.019968  
         Nd2       1.0000    0.54396   0.94335   0.14870   Biso      1.000     Nd          2.020025  
         Nd3       1.0000    0.45604   0.05665   0.85130   Biso      1.000     Nd          2.02007   
         Nd4       1.0000    0.95604   0.55665   0.64870   Biso      1.000     Nd          2.020015  
         O1        1.0000    0.42210   0.50490   0.35500   Biso      1.000     O          -0.658684           
         O2        1.0000    0.42940   0.73540   0.98150   Biso      1.000     O          -0.564379           
         O3        1.0000    0.30110   0.21500   0.89560   Biso      1.000     O          -0.7269   
         O4        1.0000    0.07060   0.76460   0.48150   Biso      1.000     O          -0.564284           
         O5        1.0000    0.62470   0.82960   0.54460   Biso      1.000     O          -0.532657           
         O6        1.0000    0.28480   0.47840   0.70140   Biso      1.000     O          -0.63612  
         O7        1.0000    0.80110   0.71500   0.60440   Biso      1.000     O          -0.726867           
         O8        1.0000    0.18210   0.60840   0.95920   Biso      1.000     O          -0.517934           
         O9        1.0000    0.78480   0.97840   0.79860   Biso      1.000     O          -0.636129           
         O10       1.0000    0.27810   0.14740   0.77000   Biso      1.000     O          -0.654784           
         O11       1.0000    0.87530   0.67040   0.04460   Biso      1.000     O          -0.532657           
         O12       1.0000    0.26080   0.24730   0.68830   Biso      1.000     O          -0.512465           
         O13       1.0000    0.57060   0.26460   0.01850   Biso      1.000     O          -0.564375           
         O14       1.0000    0.22190   0.35260   0.27000   Biso      1.000     O          -0.65477  
         O15       1.0000    0.21520   0.02160   0.20140   Biso      1.000     O          -0.63613  
         O16       1.0000    0.57790   0.49510   0.64500   Biso      1.000     O          -0.658678           
         O17       1.0000    0.23920   0.25270   0.18830   Biso      1.000     O          -0.512434           
         O18       1.0000    0.12470   0.32960   0.95540   Biso      1.000     O          -0.532649           
         O19       1.0000    0.92210   0.00490   0.14500   Biso      1.000     O          -0.658639           
         O20       1.0000    0.37530   0.17040   0.45540   Biso      1.000     O          -0.532664           
         O21       1.0000    0.07790   0.99510   0.85500   Biso      1.000     O          -0.658633           
         O22       1.0000    0.77810   0.64740   0.73000   Biso      1.000     O          -0.654768           
         O23       1.0000    0.73920   0.75270   0.31170   Biso      1.000     O          -0.512482           
         O24       1.0000    0.19890   0.28500   0.39560   Biso      1.000     O          -0.726859           
         O25       1.0000    0.81790   0.39160   0.04080   Biso      1.000     O          -0.517926           
         O26       1.0000    0.68210   0.10840   0.54080   Biso      1.000     O          -0.517885           
         O27       1.0000    0.31790   0.89160   0.45920   Biso      1.000     O          -0.517878           
         O28       1.0000    0.72190   0.85260   0.23000   Biso      1.000     O          -0.654786           
         O29       1.0000    0.69890   0.78500   0.10440   Biso      1.000     O          -0.726893           
         O30       1.0000    0.71520   0.52160   0.29860   Biso      1.000     O          -0.636121           
         O31       1.0000    0.76080   0.74730   0.81170   Biso      1.000     O          -0.512416           
         O32       1.0000    0.92940   0.23540   0.51850   Biso      1.000     O          -0.564287 