
##########################################################################
#               Crystallographic Information Format file
#               Produced by PyCifRW module
#
#  This is a CIF file.  CIF has been adopted by the International
#  Union of Crystallography as the standard for data archiving and
#  transmission.
#
#  For information on this file format, follow the CIF links at
#  http://www.iucr.org
##########################################################################

data_image0

_cell_length_a                          6.0617
_cell_length_b                          23.528
_cell_length_c                          13.3601
_cell_angle_alpha                       90
_cell_angle_beta                        112.658
_cell_angle_gamma                       90
_symmetry_space_group_name_H-M          'P 1'
_symmetry_int_tables_number             1
loop_
  _symmetry_equiv_pos_as_xyz
         'x, y, z' 
loop_
  _atom_site_label
  _atom_site_occupancy
  _atom_site_fract_x
  _atom_site_fract_y
  _atom_site_fract_z
  _atom_site_thermal_displace_type
  _atom_site_B_iso_or_equiv
  _atom_site_type_symbol
  _atom_site_charge
         C1        1.0000    0.67390   0.22150   0.76800   Biso      1.000     C          0.574946  
         C2        1.0000    0.32270   0.10100   0.58620   Biso      1.000     C          0.068936  
         C3        1.0000    0.85420   0.64110   0.92470   Biso      1.000     C          0.056097  
         C4        1.0000    0.03970   0.00780   0.35530   Biso      1.000     C          0.550387  
         C5        1.0000    0.97280   0.69600   0.48850   Biso      1.000     C          0.640691  
         C6        1.0000    0.91620   0.72990   0.57260   Biso      1.000     C          0.05036   
         C7        1.0000    0.08120   0.74800   0.67270   Biso      1.000     C          0.07086100000000001           
         C8        1.0000    0.32610   0.72150   0.73200   Biso      1.000     C          0.574942  
         C9        1.0000    0.91880   0.24800   0.82730   Biso      1.000     C          0.070862  
         C10       1.0000    0.06710   0.05640   0.43280   Biso      1.000     C          0.029049000000000002          
         C11       1.0000    0.14580   0.35890   0.07530   Biso      1.000     C          0.0561    
         C12       1.0000    0.89080   0.09650   0.42340   Biso      1.000     C          0.05803200000000001           
         C13       1.0000    0.32270   0.39900   0.08620   Biso      1.000     C          0.06893099999999999           
         C14       1.0000    0.03970   0.49220   0.85530   Biso      1.000     C          0.5503939999999999  
         C15       1.0000    0.06710   0.44360   0.93280   Biso      1.000     C          0.029051  
         C16       1.0000    0.89080   0.40350   0.92340   Biso      1.000     C          0.05803099999999999           
         C17       1.0000    0.64130   0.40630   0.83660   Biso      1.000     C          0.6300720000000001  
         C18       1.0000    0.67390   0.27850   0.26800   Biso      1.000     C          0.5749380000000001  
         C19       1.0000    0.91880   0.25200   0.32730   Biso      1.000     C          0.070863  
         C20       1.0000    0.08380   0.27010   0.42740   Biso      1.000     C          0.050362  
         C21       1.0000    0.02720   0.30400   0.51150   Biso      1.000     C          0.640688  
         C22       1.0000    0.37470   0.21750   0.40180   Biso      1.000     C          0.085613  
         C23       1.0000    0.67730   0.60100   0.91380   Biso      1.000     C          0.06893099999999999           
         C24       1.0000    0.64130   0.09370   0.33660   Biso      1.000     C          0.630065  
         C25       1.0000    0.96030   0.50780   0.14470   Biso      1.000     C          0.5503859999999999  
         C26       1.0000    0.10920   0.59650   0.07660   Biso      1.000     C          0.05801799999999999           
         C27       1.0000    0.08380   0.22990   0.92740   Biso      1.000     C          0.050352999999999995          
         C28       1.0000    0.85420   0.85890   0.42470   Biso      1.000     C          0.056112999999999996          
         C29       1.0000    0.02720   0.19600   0.01150   Biso      1.000     C          0.6406930000000001  
         C30       1.0000    0.67730   0.89900   0.41380   Biso      1.000     C          0.068936  
         C31       1.0000    0.96030   0.99220   0.64470   Biso      1.000     C          0.550387  
         C32       1.0000    0.93290   0.94360   0.56720   Biso      1.000     C          0.029051999999999998          
         C33       1.0000    0.10920   0.90350   0.57660   Biso      1.000     C          0.05801900000000001           
         C34       1.0000    0.35870   0.90630   0.66340   Biso      1.000     C          0.630073  
         C35       1.0000    0.37470   0.28250   0.90180   Biso      1.000     C          0.085623  
         C36       1.0000    0.79760   0.80690   0.68960   Biso      1.000     C          0.090968  
         C37       1.0000    0.20240   0.30690   0.81040   Biso      1.000     C          0.09096900000000001           
         C38       1.0000    0.62530   0.78250   0.59820   Biso      1.000     C          0.085618  
         C39       1.0000    0.32610   0.77850   0.23200   Biso      1.000     C          0.5749449999999999  
         C40       1.0000    0.08120   0.75200   0.17270   Biso      1.000     C          0.070862  
         C41       1.0000    0.91620   0.77010   0.07260   Biso      1.000     C          0.050352  
         C42       1.0000    0.97280   0.80400   0.98850   Biso      1.000     C          0.6406930000000001  
         C43       1.0000    0.62530   0.71750   0.09820   Biso      1.000     C          0.085619  
         C44       1.0000    0.79760   0.69310   0.18960   Biso      1.000     C          0.090974  
         C45       1.0000    0.14580   0.14110   0.57530   Biso      1.000     C          0.056119  
         C46       1.0000    0.35870   0.59370   0.16340   Biso      1.000     C          0.630081  
         C47       1.0000    0.93290   0.55640   0.06720   Biso      1.000     C          0.029057  
         C48       1.0000    0.20240   0.19310   0.31040   Biso      1.000     C          0.090964  
         Cu1       1.0000    0.50000   0.50000   0.00000   Biso      1.000     Cu          0.777605  
         Cu2       1.0000    0.50000   0.00000   0.50000   Biso      1.000     Cu          0.77758   
         H1        1.0000    0.53350   0.20650   0.42280   Biso      1.000     H          0.09889400000000001           
         H2        1.0000    0.82160   0.82990   0.37370   Biso      1.000     H          0.102253  
         H3        1.0000    0.52960   0.89660   0.35620   Biso      1.000     H          0.122948  
         H4        1.0000    0.75500   0.83690   0.72360   Biso      1.000     H          0.11313599999999999           
         H5        1.0000    0.53350   0.29350   0.92280   Biso      1.000     H          0.09888999999999999           
         H6        1.0000    0.46650   0.79350   0.57720   Biso      1.000     H          0.098887  
         H7        1.0000    0.24500   0.33690   0.77640   Biso      1.000     H          0.11313699999999999           
         H8        1.0000    0.24500   0.16310   0.27640   Biso      1.000     H          0.11313699999999999           
         H9        1.0000    0.46650   0.70650   0.07720   Biso      1.000     H          0.098885  
         H10       1.0000    0.75500   0.66310   0.22360   Biso      1.000     H          0.113131  
         H11       1.0000    0.47040   0.10340   0.64380   Biso      1.000     H          0.122946  
         H12       1.0000    0.52960   0.60340   0.85620   Biso      1.000     H          0.122948  
         H13       1.0000    0.82160   0.67010   0.87370   Biso      1.000     H          0.102252  
         H14       1.0000    0.17840   0.32990   0.12630   Biso      1.000     H          0.102245  
         H15       1.0000    0.47040   0.39660   0.14380   Biso      1.000     H          0.12294400000000001           
         H16       1.0000    0.17840   0.17010   0.62630   Biso      1.000     H          0.102241  
         Lu1       1.0000    0.40019   0.82997   0.89033   Biso      1.000     Lu          1.7019939999999998  
         Lu2       1.0000    0.40019   0.67003   0.39033   Biso      1.000     Lu          1.702036  
         Lu3       1.0000    0.59981   0.32997   0.60967   Biso      1.000     Lu          1.7020549999999999  
         Lu4       1.0000    0.59981   0.17003   0.10967   Biso      1.000     Lu          1.7020819999999999  
         N1        1.0000    0.02170   0.71171   0.22970   Biso      1.000     N          -0.256146           
         N2        1.0000    0.68280   0.75630   0.04000   Biso      1.000     N          -0.243468           
         N3        1.0000    0.06890   0.63940   0.00580   Biso      1.000     N          -0.256298           
         N4        1.0000    0.71980   0.55950   0.98530   Biso      1.000     N          -0.18340599999999999          
         N5        1.0000    0.71980   0.94050   0.48530   Biso      1.000     N          -0.18340399999999998          
         N6        1.0000    0.06890   0.86060   0.50580   Biso      1.000     N          -0.256294           
         N7        1.0000    0.68280   0.74370   0.54000   Biso      1.000     N          -0.24347399999999997          
         N8        1.0000    0.02170   0.78829   0.72970   Biso      1.000     N          -0.256135           
         N9        1.0000    0.97830   0.28829   0.77030   Biso      1.000     N          -0.25614499999999996          
         N10       1.0000    0.97830   0.21171   0.27030   Biso      1.000     N          -0.25613600000000003          
         N11       1.0000    0.31720   0.25630   0.46000   Biso      1.000     N          -0.243468           
         N12       1.0000    0.31720   0.24370   0.96000   Biso      1.000     N          -0.243475           
         N13       1.0000    0.28020   0.05950   0.51470   Biso      1.000     N          -0.183396           
         N14       1.0000    0.28020   0.44050   0.01470   Biso      1.000     N          -0.1834   
         N15       1.0000    0.93110   0.36060   0.99420   Biso      1.000     N          -0.256309           
         N16       1.0000    0.93110   0.13940   0.49420   Biso      1.000     N          -0.256297           
         O1        1.0000    0.16430   0.79357   0.97800   Biso      1.000     O          -0.571665           
         O2        1.0000    0.50430   0.56220   0.14760   Biso      1.000     O          -0.5166689999999999           
         O3        1.0000    0.40150   0.62686   0.24310   Biso      1.000     O          -0.6536930000000001           
         O4        1.0000    0.13750   0.50480   0.22880   Biso      1.000     O          -0.524438           
         O5        1.0000    0.18840   0.33724   0.56880   Biso      1.000     O          -0.57322  
         O6        1.0000    0.36280   0.82669   0.20470   Biso      1.000     O          -0.509092           
         O7        1.0000    0.46870   0.74969   0.30900   Biso      1.000     O          -0.611023           
         O8        1.0000    0.20950   0.52840   0.88610   Biso      1.000     O          -0.5350010000000001           
         O9        1.0000    0.86250   0.49520   0.77120   Biso      1.000     O          -0.524418           
         O10       1.0000    0.59850   0.37314   0.75690   Biso      1.000     O          -0.653701           
         O11       1.0000    0.53130   0.24969   0.19100   Biso      1.000     O          -0.611002           
         O12       1.0000    0.63720   0.32669   0.29530   Biso      1.000     O          -0.509062           
         O13       1.0000    0.81160   0.83724   0.93120   Biso      1.000     O          -0.5732430000000001           
         O14       1.0000    0.79050   0.47160   0.11390   Biso      1.000     O          -0.535011           
         O15       1.0000    0.49570   0.43780   0.85240   Biso      1.000     O          -0.516663           
         O16       1.0000    0.18840   0.16276   0.06880   Biso      1.000     O          -0.5732430000000001           
         O17       1.0000    0.20950   0.97160   0.38610   Biso      1.000     O          -0.534989           
         O18       1.0000    0.86250   0.00480   0.27120   Biso      1.000     O          -0.524402           
         O19       1.0000    0.59850   0.12686   0.25690   Biso      1.000     O          -0.653698           
         O20       1.0000    0.49570   0.06220   0.35240   Biso      1.000     O          -0.51666  
         O21       1.0000    0.83570   0.29357   0.52200   Biso      1.000     O          -0.571658           
         O22       1.0000    0.46870   0.75031   0.80900   Biso      1.000     O          -0.61101  
         O23       1.0000    0.83570   0.20643   0.02200   Biso      1.000     O          -0.571659           
         O24       1.0000    0.36280   0.67331   0.70470   Biso      1.000     O          -0.5090819999999999           
         O25       1.0000    0.16430   0.70643   0.47800   Biso      1.000     O          -0.571662           
         O26       1.0000    0.53130   0.25031   0.69100   Biso      1.000     O          -0.61101  
         O27       1.0000    0.40150   0.87314   0.74310   Biso      1.000     O          -0.653686           
         O28       1.0000    0.13750   0.99520   0.72880   Biso      1.000     O          -0.524405           
         O29       1.0000    0.79050   0.02840   0.61390   Biso      1.000     O          -0.535004           
         O30       1.0000    0.63720   0.17331   0.79530   Biso      1.000     O          -0.509087           
         O31       1.0000    0.81160   0.66276   0.43120   Biso      1.000     O          -0.573224           
         O32       1.0000    0.50430   0.93780   0.64760   Biso      1.000     O          -0.5166729999999999 