
##########################################################################
#               Crystallographic Information Format file
#               Produced by PyCifRW module
#
#  This is a CIF file.  CIF has been adopted by the International
#  Union of Crystallography as the standard for data archiving and
#  transmission.
#
#  For information on this file format, follow the CIF links at
#  http://www.iucr.org
##########################################################################

data_image0

_cell_length_a                          6.0407
_cell_length_b                          12.3297
_cell_length_c                          23.58
_cell_angle_alpha                       90
_cell_angle_beta                        90
_cell_angle_gamma                       94.0532
_symmetry_space_group_name_H-M          'P 1'
_symmetry_int_tables_number             1
loop_
  _symmetry_equiv_pos_as_xyz
         'x, y, z' 
loop_
  _atom_site_label
  _atom_site_occupancy
  _atom_site_fract_x
  _atom_site_fract_y
  _atom_site_fract_z
  _atom_site_thermal_displace_type
  _atom_site_B_iso_or_equiv
  _atom_site_type_symbol
  _atom_site_charge
         C1        1.0000    0.23280   0.41510   0.60140   Biso      1.000     C          0.065169  
         C2        1.0000    0.96550   0.57960   0.59570   Biso      1.000     C          0.050838999999999995          
         C3        1.0000    0.98480   0.51070   0.19690   Biso      1.000     C          0.648035  
         C4        1.0000    0.80080   0.66660   0.59290   Biso      1.000     C          0.6500319999999999  
         C5        1.0000    0.58640   0.17210   0.74770   Biso      1.000     C          0.081932  
         C6        1.0000    0.46550   0.07960   0.90430   Biso      1.000     C          0.050838999999999995          
         C7        1.0000    0.30080   0.16660   0.90710   Biso      1.000     C          0.6500319999999999  
         C8        1.0000    0.76720   0.58490   0.39860   Biso      1.000     C          0.065169  
         C9        1.0000    0.88970   0.19090   0.80630   Biso      1.000     C          0.10013   
         C10       1.0000    0.73280   0.91510   0.89860   Biso      1.000     C          0.065169  
         C11       1.0000    0.10060   0.26840   0.22200   Biso      1.000     C          0.583155  
         C12       1.0000    0.65570   0.07220   0.72970   Biso      1.000     C          0.069052  
         C13       1.0000    0.89940   0.73160   0.77800   Biso      1.000     C          0.583155  
         C14       1.0000    0.13220   0.56880   0.55580   Biso      1.000     C          0.034422  
         C15       1.0000    0.52940   0.40270   0.28140   Biso      1.000     C          0.095803  
         C16       1.0000    0.18340   0.64510   0.50800   Biso      1.000     C          0.5465899999999999  
         C17       1.0000    0.15570   0.57220   0.77030   Biso      1.000     C          0.06905   
         C18       1.0000    0.47060   0.59730   0.71860   Biso      1.000     C          0.095803  
         C19       1.0000    0.60060   0.76840   0.27800   Biso      1.000     C          0.583155  
         C20       1.0000    0.03450   0.42040   0.40430   Biso      1.000     C          0.050838999999999995          
         C21       1.0000    0.01520   0.48930   0.80310   Biso      1.000     C          0.648035  
         C22       1.0000    0.38970   0.69090   0.69370   Biso      1.000     C          0.100131  
         C23       1.0000    0.26720   0.08490   0.10140   Biso      1.000     C          0.065169  
         C24       1.0000    0.63220   0.06880   0.94420   Biso      1.000     C          0.034421  
         C25       1.0000    0.56650   0.92630   0.85850   Biso      1.000     C          0.056495000000000004          
         C26       1.0000    0.43350   0.07370   0.14150   Biso      1.000     C          0.056495000000000004          
         C27       1.0000    0.84430   0.42780   0.22970   Biso      1.000     C          0.069051  
         C28       1.0000    0.41360   0.82790   0.25230   Biso      1.000     C          0.081933  
         C29       1.0000    0.39940   0.23160   0.72200   Biso      1.000     C          0.583156  
         C30       1.0000    0.48480   0.01070   0.30310   Biso      1.000     C          0.648034  
         C31       1.0000    0.53450   0.92040   0.09570   Biso      1.000     C          0.050838999999999995          
         C32       1.0000    0.81660   0.35490   0.49200   Biso      1.000     C          0.5465899999999999  
         C33       1.0000    0.93350   0.57370   0.35850   Biso      1.000     C          0.056494  
         C34       1.0000    0.86780   0.43120   0.44420   Biso      1.000     C          0.034421  
         C35       1.0000    0.68340   0.14510   0.99200   Biso      1.000     C          0.5465899999999999  
         C36       1.0000    0.11030   0.80910   0.19370   Biso      1.000     C          0.10013   
         C37       1.0000    0.91360   0.32790   0.24770   Biso      1.000     C          0.081934  
         C38       1.0000    0.36780   0.93120   0.05580   Biso      1.000     C          0.034421  
         C39       1.0000    0.97060   0.09730   0.78140   Biso      1.000     C          0.095805  
         C40       1.0000    0.02940   0.90270   0.21860   Biso      1.000     C          0.095805  
         C41       1.0000    0.06650   0.42630   0.64150   Biso      1.000     C          0.056494  
         C42       1.0000    0.31660   0.85490   0.00800   Biso      1.000     C          0.5465899999999999  
         C43       1.0000    0.61030   0.30910   0.30630   Biso      1.000     C          0.100131  
         C44       1.0000    0.19920   0.33340   0.40710   Biso      1.000     C          0.6500319999999999  
         C45       1.0000    0.34430   0.92780   0.27030   Biso      1.000     C          0.069052  
         C46       1.0000    0.69920   0.83340   0.09290   Biso      1.000     C          0.6500319999999999  
         C47       1.0000    0.08640   0.67210   0.75230   Biso      1.000     C          0.081934  
         C48       1.0000    0.51520   0.98930   0.69690   Biso      1.000     C          0.648035  
         Cu1       1.0000    0.50000   0.50000   0.50000   Biso      1.000     Cu          0.776871  
         Cu2       1.0000    0.00000   0.00000   0.00000   Biso      1.000     Cu          0.776874  
         Gd1       1.0000    0.01157   0.10983   0.32861   Biso      1.000     Gd          1.967501  
         Gd2       1.0000    0.48843   0.39017   0.82861   Biso      1.000     Gd          1.9675029999999998  
         Gd3       1.0000    0.51157   0.60983   0.17139   Biso      1.000     Gd          1.9675029999999998  
         Gd4       1.0000    0.98843   0.89017   0.67139   Biso      1.000     Gd          1.967502  
         H1        1.0000    0.10810   0.07510   0.79240   Biso      1.000     H          0.09842999999999999           
         H2        1.0000    0.96820   0.22590   0.83580   Biso      1.000     H          0.118443  
         H3        1.0000    0.32200   0.35680   0.60390   Biso      1.000     H          0.12235599999999999           
         H4        1.0000    0.54670   0.87490   0.82980   Biso      1.000     H          0.10559600000000001           
         H5        1.0000    0.04670   0.37490   0.67020   Biso      1.000     H          0.10559600000000001           
         H6        1.0000    0.17800   0.14320   0.10390   Biso      1.000     H          0.12235599999999999           
         H7        1.0000    0.95330   0.62510   0.32980   Biso      1.000     H          0.10559600000000001           
         H8        1.0000    0.45330   0.12510   0.17020   Biso      1.000     H          0.10559600000000001           
         H9        1.0000    0.67800   0.64320   0.39610   Biso      1.000     H          0.12235599999999999           
         H10       1.0000    0.89190   0.92490   0.20760   Biso      1.000     H          0.09842999999999999           
         H11       1.0000    0.82200   0.85680   0.89610   Biso      1.000     H          0.12235599999999999           
         H12       1.0000    0.53180   0.27410   0.33580   Biso      1.000     H          0.118443  
         H13       1.0000    0.03180   0.77410   0.16420   Biso      1.000     H          0.118443  
         H14       1.0000    0.60810   0.57510   0.70760   Biso      1.000     H          0.09842999999999999           
         H15       1.0000    0.39190   0.42490   0.29240   Biso      1.000     H          0.09842999999999999           
         H16       1.0000    0.46820   0.72590   0.66420   Biso      1.000     H          0.118443  
         N1        1.0000    0.06450   0.49150   0.36010   Biso      1.000     N          -0.25651  
         N2        1.0000    0.26510   0.48720   0.55930   Biso      1.000     N          -0.184852           
         N3        1.0000    0.79920   0.27010   0.28780   Biso      1.000     N          -0.314442           
         N4        1.0000    0.23490   0.01280   0.05930   Biso      1.000     N          -0.184853           
         N5        1.0000    0.43550   0.00850   0.86010   Biso      1.000     N          -0.25651  
         N6        1.0000    0.35380   0.54070   0.75740   Biso      1.000     N          -0.289902           
         N7        1.0000    0.73490   0.51280   0.44070   Biso      1.000     N          -0.184852           
         N8        1.0000    0.14620   0.95930   0.25740   Biso      1.000     N          -0.289902           
         N9        1.0000    0.70080   0.22990   0.78780   Biso      1.000     N          -0.314442           
         N10       1.0000    0.29920   0.77010   0.21220   Biso      1.000     N          -0.314442           
         N11       1.0000    0.56450   0.99150   0.13990   Biso      1.000     N          -0.25651  
         N12       1.0000    0.76510   0.98720   0.94070   Biso      1.000     N          -0.184853           
         N13       1.0000    0.64620   0.45930   0.24260   Biso      1.000     N          -0.289902           
         N14       1.0000    0.85380   0.04070   0.74260   Biso      1.000     N          -0.289901           
         N15       1.0000    0.20080   0.72990   0.71220   Biso      1.000     N          -0.314443           
         N16       1.0000    0.93550   0.50850   0.63990   Biso      1.000     N          -0.25651  
         O1        1.0000    0.35900   0.34950   0.43830   Biso      1.000     O          -0.5138699999999999           
         O2        1.0000    0.16560   0.19080   0.25050   Biso      1.000     O          -0.6627390000000001           
         O3        1.0000    0.32160   0.61330   0.47100   Biso      1.000     O          -0.539011           
         O4        1.0000    0.33660   0.24650   0.87470   Biso      1.000     O          -0.725154           
         O5        1.0000    0.11860   0.43090   0.83710   Biso      1.000     O          -0.6289710000000001           
         O6        1.0000    0.66560   0.69080   0.24950   Biso      1.000     O          -0.6627390000000001           
         O7        1.0000    0.80960   0.47760   0.79310   Biso      1.000     O          -0.644844           
         O8        1.0000    0.16560   0.29590   0.17420   Biso      1.000     O          -0.502742           
         O9        1.0000    0.30960   0.97760   0.70690   Biso      1.000     O          -0.644844           
         O10       1.0000    0.16340   0.25350   0.37470   Biso      1.000     O          -0.725154           
         O11       1.0000    0.17840   0.88670   0.97100   Biso      1.000     O          -0.5390119999999999           
         O12       1.0000    0.82160   0.11330   0.02900   Biso      1.000     O          -0.5390119999999999           
         O13       1.0000    0.09160   0.73040   0.50520   Biso      1.000     O          -0.519382           
         O14       1.0000    0.59160   0.23040   0.99480   Biso      1.000     O          -0.519382           
         O15       1.0000    0.66340   0.75350   0.12530   Biso      1.000     O          -0.725154           
         O16       1.0000    0.33440   0.20410   0.67420   Biso      1.000     O          -0.502741           
         O17       1.0000    0.85900   0.84950   0.06170   Biso      1.000     O          -0.5138699999999999           
         O18       1.0000    0.38140   0.06910   0.33710   Biso      1.000     O          -0.62897  
         O19       1.0000    0.69040   0.02240   0.29310   Biso      1.000     O          -0.644844           
         O20       1.0000    0.90840   0.26960   0.49480   Biso      1.000     O          -0.519383           
         O21       1.0000    0.64100   0.65050   0.56170   Biso      1.000     O          -0.5138699999999999           
         O22       1.0000    0.83440   0.80920   0.74950   Biso      1.000     O          -0.6627390000000001           
         O23       1.0000    0.88140   0.56910   0.16290   Biso      1.000     O          -0.6289710000000001           
         O24       1.0000    0.67840   0.38670   0.52900   Biso      1.000     O          -0.539011           
         O25       1.0000    0.83440   0.70410   0.82580   Biso      1.000     O          -0.502742           
         O26       1.0000    0.66560   0.79590   0.32580   Biso      1.000     O          -0.502741           
         O27       1.0000    0.83660   0.74650   0.62530   Biso      1.000     O          -0.725154           
         O28       1.0000    0.40840   0.76960   0.00520   Biso      1.000     O          -0.519382           
         O29       1.0000    0.61860   0.93090   0.66290   Biso      1.000     O          -0.62897  
         O30       1.0000    0.33440   0.30920   0.75050   Biso      1.000     O          -0.6627390000000001           
         O31       1.0000    0.14100   0.15050   0.93830   Biso      1.000     O          -0.5138699999999999           
         O32       1.0000    0.19040   0.52240   0.20690   Biso      1.000     O          -0.644844 