
##########################################################################
#               Crystallographic Information Format file
#               Produced by PyCifRW module
#
#  This is a CIF file.  CIF has been adopted by the International
#  Union of Crystallography as the standard for data archiving and
#  transmission.
#
#  For information on this file format, follow the CIF links at
#  http://www.iucr.org
##########################################################################

data_image0

_cell_length_a                          6.0607
_cell_length_b                          12.3643
_cell_length_c                          23.4943
_cell_angle_alpha                       90
_cell_angle_beta                        90
_cell_angle_gamma                       94.2411
_symmetry_space_group_name_H-M          'P 1'
_symmetry_int_tables_number             1
loop_
  _symmetry_equiv_pos_as_xyz
         'x, y, z' 
loop_
  _atom_site_label
  _atom_site_occupancy
  _atom_site_fract_x
  _atom_site_fract_y
  _atom_site_fract_z
  _atom_site_thermal_displace_type
  _atom_site_B_iso_or_equiv
  _atom_site_type_symbol
  _atom_site_charge
         C1        1.0000    0.84300   0.42640   0.27020   Biso      1.000     C          0.050541  
         C2        1.0000    0.86580   0.43230   0.05620   Biso      1.000     C          0.029099  
         C3        1.0000    0.03330   0.42290   0.09640   Biso      1.000     C          0.06088   
         C4        1.0000    0.10740   0.80920   0.30690   Biso      1.000     C          0.097591  
         C5        1.0000    0.46670   0.07710   0.59640   Biso      1.000     C          0.060877999999999995          
         C6        1.0000    0.60740   0.30920   0.19310   Biso      1.000     C          0.097592  
         C7        1.0000    0.34300   0.92640   0.22980   Biso      1.000     C          0.050541  
         C8        1.0000    0.59180   0.17300   0.75200   Biso      1.000     C          0.077277  
         C9        1.0000    0.09180   0.67300   0.74800   Biso      1.000     C          0.077278  
         C10       1.0000    0.76570   0.58620   0.10160   Biso      1.000     C          0.065939  
         C11       1.0000    0.43130   0.07350   0.35820   Biso      1.000     C          0.057779  
         C12       1.0000    0.56870   0.92650   0.64180   Biso      1.000     C          0.057777999999999996          
         C13       1.0000    0.69510   0.83520   0.40690   Biso      1.000     C          0.6471680000000001  
         C14       1.0000    0.90630   0.73260   0.72140   Biso      1.000     C          0.576333  
         C15       1.0000    0.06870   0.42650   0.85820   Biso      1.000     C          0.057776999999999995          
         C16       1.0000    0.31680   0.85550   0.49270   Biso      1.000     C          0.551425  
         C17       1.0000    0.96670   0.57710   0.90360   Biso      1.000     C          0.060877999999999995          
         C18       1.0000    0.23430   0.41380   0.89840   Biso      1.000     C          0.065938  
         C19       1.0000    0.65700   0.07360   0.77020   Biso      1.000     C          0.050541  
         C20       1.0000    0.15700   0.57360   0.72980   Biso      1.000     C          0.050539999999999995          
         C21       1.0000    0.18320   0.64450   0.99270   Biso      1.000     C          0.551428  
         C22       1.0000    0.51640   0.98890   0.80380   Biso      1.000     C          0.6547970000000001  
         C23       1.0000    0.40630   0.23260   0.77860   Biso      1.000     C          0.576335  
         C24       1.0000    0.19510   0.33520   0.09310   Biso      1.000     C          0.6471680000000001  
         C25       1.0000    0.40820   0.82700   0.24800   Biso      1.000     C          0.077278  
         C26       1.0000    0.48360   0.01110   0.19620   Biso      1.000     C          0.654796  
         C27       1.0000    0.39260   0.69080   0.80690   Biso      1.000     C          0.097591  
         C28       1.0000    0.90820   0.32700   0.25200   Biso      1.000     C          0.077279  
         C29       1.0000    0.47270   0.59910   0.78230   Biso      1.000     C          0.094249  
         C30       1.0000    0.89260   0.19080   0.69310   Biso      1.000     C          0.09759   
         C31       1.0000    0.53330   0.92290   0.40360   Biso      1.000     C          0.06088   
         C32       1.0000    0.26570   0.08620   0.39840   Biso      1.000     C          0.06594   
         C33       1.0000    0.97270   0.09910   0.71770   Biso      1.000     C          0.094248  
         C34       1.0000    0.30490   0.16480   0.59310   Biso      1.000     C          0.647169  
         C35       1.0000    0.09370   0.26740   0.27860   Biso      1.000     C          0.576333  
         C36       1.0000    0.02730   0.90090   0.28230   Biso      1.000     C          0.09425   
         C37       1.0000    0.93130   0.57350   0.14180   Biso      1.000     C          0.057776999999999995          
         C38       1.0000    0.73430   0.91380   0.60160   Biso      1.000     C          0.06594   
         C39       1.0000    0.80490   0.66480   0.90690   Biso      1.000     C          0.6471680000000001  
         C40       1.0000    0.01640   0.48890   0.69620   Biso      1.000     C          0.654799  
         C41       1.0000    0.52730   0.40090   0.21770   Biso      1.000     C          0.09425   
         C42       1.0000    0.36580   0.93230   0.44380   Biso      1.000     C          0.029101  
         C43       1.0000    0.59370   0.76740   0.22140   Biso      1.000     C          0.576334  
         C44       1.0000    0.98360   0.51110   0.30380   Biso      1.000     C          0.654798  
         C45       1.0000    0.81680   0.35550   0.00730   Biso      1.000     C          0.551427  
         C46       1.0000    0.13420   0.56770   0.94380   Biso      1.000     C          0.029099  
         C47       1.0000    0.63420   0.06770   0.55620   Biso      1.000     C          0.029101  
         C48       1.0000    0.68320   0.14450   0.50730   Biso      1.000     C          0.551425  
         Cu1       1.0000    0.00000   0.00000   0.50000   Biso      1.000     Cu          0.7859520000000001  
         Cu2       1.0000    0.50000   0.50000   0.00000   Biso      1.000     Cu          0.7859520000000001  
         Er1       1.0000    0.99065   0.89077   0.82982   Biso      1.000     Er          1.9734479999999999  
         Er2       1.0000    0.00935   0.10923   0.17018   Biso      1.000     Er          1.9734580000000002  
         Er3       1.0000    0.50935   0.60923   0.32982   Biso      1.000     Er          1.973454  
         Er4       1.0000    0.49065   0.39077   0.67018   Biso      1.000     Er          1.973452  
         H1        1.0000    0.98000   0.00700   0.89700   Biso      1.000     H          0.404364  
         H2        1.0000    0.53020   0.27480   0.16320   Biso      1.000     H          0.11545899999999999           
         H3        1.0000    0.02000   0.99300   0.10300   Biso      1.000     H          0.404366  
         H4        1.0000    0.93100   0.10900   0.88100   Biso      1.000     H          0.502838  
         H5        1.0000    0.06900   0.89100   0.11900   Biso      1.000     H          0.50284   
         H6        1.0000    0.46980   0.72520   0.83680   Biso      1.000     H          0.11546   
         H7        1.0000    0.55110   0.87670   0.67140   Biso      1.000     H          0.102113  
         H8        1.0000    0.88920   0.92170   0.29320   Biso      1.000     H          0.099538  
         H9        1.0000    0.43100   0.60900   0.61900   Biso      1.000     H          0.502837  
         H10       1.0000    0.52000   0.49300   0.39700   Biso      1.000     H          0.404366  
         H11       1.0000    0.38920   0.42170   0.20680   Biso      1.000     H          0.09954   
         H12       1.0000    0.48000   0.50700   0.60300   Biso      1.000     H          0.404366  
         H13       1.0000    0.56900   0.39100   0.38100   Biso      1.000     H          0.502838  
         H14       1.0000    0.96980   0.22520   0.66320   Biso      1.000     H          0.11545699999999999           
         H15       1.0000    0.17800   0.14460   0.39580   Biso      1.000     H          0.12010599999999999           
         H16       1.0000    0.61080   0.57830   0.79320   Biso      1.000     H          0.099538  
         H17       1.0000    0.67800   0.64460   0.10420   Biso      1.000     H          0.12010699999999999           
         H18       1.0000    0.03020   0.77480   0.33680   Biso      1.000     H          0.11546   
         H19       1.0000    0.05110   0.37670   0.82860   Biso      1.000     H          0.102114  
         H20       1.0000    0.44890   0.12330   0.32860   Biso      1.000     H          0.10211100000000001           
         H21       1.0000    0.94890   0.62330   0.17140   Biso      1.000     H          0.10211   
         H22       1.0000    0.82200   0.85540   0.60420   Biso      1.000     H          0.12010699999999999           
         H23       1.0000    0.11080   0.07830   0.70680   Biso      1.000     H          0.099536  
         H24       1.0000    0.32200   0.35540   0.89580   Biso      1.000     H          0.12010799999999999           
         N1        1.0000    0.35700   0.54050   0.74357   Biso      1.000     N          -0.27973200000000004          
         N2        1.0000    0.73370   0.51470   0.05964   Biso      1.000     N          -0.187319           
         N3        1.0000    0.23370   0.01470   0.44036   Biso      1.000     N          -0.187319           
         N4        1.0000    0.06390   0.49360   0.13950   Biso      1.000     N          -0.244469           
         N5        1.0000    0.79260   0.27000   0.21178   Biso      1.000     N          -0.31958200000000003          
         N6        1.0000    0.64300   0.45950   0.25643   Biso      1.000     N          -0.27973200000000004          
         N7        1.0000    0.20740   0.73000   0.78822   Biso      1.000     N          -0.31958000000000003          
         N8        1.0000    0.14300   0.95950   0.24357   Biso      1.000     N          -0.279733           
         N9        1.0000    0.93610   0.50640   0.86050   Biso      1.000     N          -0.24446700000000002          
         N10       1.0000    0.43610   0.00640   0.63950   Biso      1.000     N          -0.24446199999999998          
         N11       1.0000    0.29260   0.77000   0.28822   Biso      1.000     N          -0.319581           
         N12       1.0000    0.85700   0.04050   0.75643   Biso      1.000     N          -0.27973400000000004          
         N13       1.0000    0.56390   0.99360   0.36050   Biso      1.000     N          -0.244466           
         N14       1.0000    0.70740   0.23000   0.71178   Biso      1.000     N          -0.319585           
         N15       1.0000    0.76630   0.98530   0.55964   Biso      1.000     N          -0.18732100000000002          
         N16       1.0000    0.26630   0.48530   0.94036   Biso      1.000     N          -0.18732200000000002          
         O1        1.0000    0.14340   0.14820   0.56189   Biso      1.000     O          -0.5229159999999999           
         O2        1.0000    0.15910   0.29510   0.32668   Biso      1.000     O          -0.491306           
         O3        1.0000    0.84190   0.74420   0.87391   Biso      1.000     O          -0.742788           
         O4        1.0000    0.18660   0.52120   0.29373   Biso      1.000     O          -0.631895           
         O5        1.0000    0.64340   0.64820   0.93811   Biso      1.000     O          -0.522917           
         O6        1.0000    0.17670   0.88640   0.52905   Biso      1.000     O          -0.540734           
         O7        1.0000    0.09290   0.72950   0.99548   Biso      1.000     O          -0.538329           
         O8        1.0000    0.47800   0.44040   0.37540   Biso      1.000     O          -0.8284379999999999           
         O9        1.0000    0.52200   0.55960   0.62460   Biso      1.000     O          -0.8284370000000001           
         O10       1.0000    0.97800   0.94040   0.12460   Biso      1.000     O          -0.8284360000000001           
         O11       1.0000    0.88040   0.56850   0.33723   Biso      1.000     O          -0.665817           
         O12       1.0000    0.65810   0.75580   0.37391   Biso      1.000     O          -0.74279  
         O13       1.0000    0.84000   0.80960   0.75028   Biso      1.000     O          -0.680602           
         O14       1.0000    0.34090   0.20490   0.82668   Biso      1.000     O          -0.491309           
         O15       1.0000    0.40710   0.77050   0.49548   Biso      1.000     O          -0.538325           
         O16       1.0000    0.82330   0.11360   0.47095   Biso      1.000     O          -0.540737           
         O17       1.0000    0.81340   0.47880   0.70627   Biso      1.000     O          -0.631895           
         O18       1.0000    0.11960   0.43150   0.66277   Biso      1.000     O          -0.6658189999999999           
         O19       1.0000    0.90710   0.27050   0.00452   Biso      1.000     O          -0.538328           
         O20       1.0000    0.38040   0.06850   0.16277   Biso      1.000     O          -0.665817           
         O21       1.0000    0.61960   0.93150   0.83723   Biso      1.000     O          -0.665821           
         O22       1.0000    0.59290   0.22950   0.50452   Biso      1.000     O          -0.538327           
         O23       1.0000    0.68660   0.02120   0.20627   Biso      1.000     O          -0.631896           
         O24       1.0000    0.16000   0.19040   0.24972   Biso      1.000     O          -0.680603           
         O25       1.0000    0.84090   0.70490   0.67332   Biso      1.000     O          -0.491309           
         O26       1.0000    0.02200   0.05960   0.87540   Biso      1.000     O          -0.8284370000000001           
         O27       1.0000    0.15810   0.25580   0.12609   Biso      1.000     O          -0.742792           
         O28       1.0000    0.85660   0.85180   0.43811   Biso      1.000     O          -0.522915           
         O29       1.0000    0.35660   0.35180   0.06189   Biso      1.000     O          -0.522915           
         O30       1.0000    0.34190   0.24420   0.62609   Biso      1.000     O          -0.742786           
         O31       1.0000    0.34000   0.30960   0.74972   Biso      1.000     O          -0.680605           
         O32       1.0000    0.32330   0.61360   0.02905   Biso      1.000     O          -0.540738           
         O33       1.0000    0.67670   0.38640   0.97095   Biso      1.000     O          -0.540734           
         O34       1.0000    0.66000   0.69040   0.25028   Biso      1.000     O          -0.680601           
         O35       1.0000    0.65910   0.79510   0.17332   Biso      1.000     O          -0.491305           
         O36       1.0000    0.31340   0.97880   0.79373   Biso      1.000     O          -0.631898 