
##########################################################################
#               Crystallographic Information Format file
#               Produced by PyCifRW module
#
#  This is a CIF file.  CIF has been adopted by the International
#  Union of Crystallography as the standard for data archiving and
#  transmission.
#
#  For information on this file format, follow the CIF links at
#  http://www.iucr.org
##########################################################################

data_image0

_cell_length_a                          6.159
_cell_length_b                          12.2614
_cell_length_c                          22.796
_cell_angle_alpha                       90
_cell_angle_beta                        90
_cell_angle_gamma                       89.7776
_symmetry_space_group_name_H-M          'P 1'
_symmetry_int_tables_number             1
loop_
  _symmetry_equiv_pos_as_xyz
         'x, y, z' 
loop_
  _atom_site_label
  _atom_site_occupancy
  _atom_site_fract_x
  _atom_site_fract_y
  _atom_site_fract_z
  _atom_site_thermal_displace_type
  _atom_site_B_iso_or_equiv
  _atom_site_type_symbol
  _atom_site_charge
         C1        1.0000    0.45370   0.21630   0.24390   Biso      1.000     C          0.077326  
         C2        1.0000    0.21890   0.69510   0.42290   Biso      1.000     C          0.629703  
         C3        1.0000    0.84350   0.22050   0.76420   Biso      1.000     C          0.578797  
         C4        1.0000    0.87510   0.58990   0.45210   Biso      1.000     C          0.040616  
         C5        1.0000    0.82820   0.64980   0.50690   Biso      1.000     C          0.5367890000000001  
         C6        1.0000    0.02200   0.54700   0.18830   Biso      1.000     C          0.652036  
         C7        1.0000    0.95430   0.39070   0.58590   Biso      1.000     C          0.057293  
         C8        1.0000    0.54570   0.10930   0.08590   Biso      1.000     C          0.057293  
         C9        1.0000    0.76630   0.44970   0.39140   Biso      1.000     C          0.06313200000000001           
         C10       1.0000    0.38580   0.11820   0.27190   Biso      1.000     C          0.073157  
         C11       1.0000    0.47800   0.95300   0.68830   Biso      1.000     C          0.652037  
         C12       1.0000    0.93120   0.86780   0.77820   Biso      1.000     C          0.096224  
         C13       1.0000    0.28110   0.80490   0.92290   Biso      1.000     C          0.6297050000000001  
         C14       1.0000    0.23370   0.55030   0.60860   Biso      1.000     C          0.06313200000000001           
         C15       1.0000    0.95370   0.71630   0.25610   Biso      1.000     C          0.077326  
         C16       1.0000    0.26630   0.94970   0.10860   Biso      1.000     C          0.06313300000000001           
         C17       1.0000    0.56880   0.63220   0.27820   Biso      1.000     C          0.096221  
         C18       1.0000    0.34350   0.72050   0.73580   Biso      1.000     C          0.578797  
         C19       1.0000    0.62490   0.91010   0.95210   Biso      1.000     C          0.040616  
         C20       1.0000    0.04630   0.28370   0.74390   Biso      1.000     C          0.077325  
         C21       1.0000    0.52200   0.04700   0.31170   Biso      1.000     C          0.652036  
         C22       1.0000    0.11420   0.38180   0.77190   Biso      1.000     C          0.073161  
         C23       1.0000    0.17180   0.35020   0.49310   Biso      1.000     C          0.536786  
         C24       1.0000    0.85170   0.77630   0.81080   Biso      1.000     C          0.093512  
         C25       1.0000    0.43300   0.96700   0.14430   Biso      1.000     C          0.050212  
         C26       1.0000    0.93300   0.46700   0.35570   Biso      1.000     C          0.050212  
         C27       1.0000    0.12490   0.41010   0.54790   Biso      1.000     C          0.040616  
         C28       1.0000    0.65650   0.27950   0.26420   Biso      1.000     C          0.578793  
         C29       1.0000    0.43120   0.36780   0.72180   Biso      1.000     C          0.096224  
         C30       1.0000    0.88580   0.61820   0.22810   Biso      1.000     C          0.073157  
         C31       1.0000    0.61420   0.88180   0.72810   Biso      1.000     C          0.07316   
         C32       1.0000    0.14830   0.22370   0.18920   Biso      1.000     C          0.093511  
         C33       1.0000    0.06700   0.53300   0.64430   Biso      1.000     C          0.050212  
         C34       1.0000    0.56700   0.03300   0.85570   Biso      1.000     C          0.050175  
         C35       1.0000    0.15650   0.77950   0.23580   Biso      1.000     C          0.578793  
         C36       1.0000    0.71890   0.19510   0.07710   Biso      1.000     C          0.629703  
         C37       1.0000    0.73370   0.05030   0.89140   Biso      1.000     C          0.063169  
         C38       1.0000    0.04570   0.60930   0.41410   Biso      1.000     C          0.057293  
         C39       1.0000    0.78110   0.30490   0.57710   Biso      1.000     C          0.629704  
         C40       1.0000    0.97800   0.45300   0.81170   Biso      1.000     C          0.652037  
         C41       1.0000    0.32820   0.14980   0.99310   Biso      1.000     C          0.5367890000000001  
         C42       1.0000    0.54630   0.78370   0.75610   Biso      1.000     C          0.077326  
         C43       1.0000    0.37510   0.08990   0.04790   Biso      1.000     C          0.040616  
         C44       1.0000    0.35170   0.27630   0.68920   Biso      1.000     C          0.093512  
         C45       1.0000    0.64830   0.72370   0.31080   Biso      1.000     C          0.093511  
         C46       1.0000    0.45430   0.89070   0.91410   Biso      1.000     C          0.057293  
         C47       1.0000    0.06880   0.13220   0.22180   Biso      1.000     C          0.096221  
         C48       1.0000    0.67180   0.85020   0.00690   Biso      1.000     C          0.536788  
         Ce1       1.0000    0.04256   0.94354   0.35174   Biso      1.000     Ce          2.007071  
         Ce2       1.0000    0.95744   0.05646   0.64826   Biso      1.000     Ce          2.007115  
         Ce3       1.0000    0.54256   0.44354   0.14826   Biso      1.000     Ce          2.007071  
         Ce4       1.0000    0.45744   0.55646   0.85174   Biso      1.000     Ce          2.007115  
         Cu1       1.0000    0.00000   0.00000   0.00000   Biso      1.000     Cu          0.785062  
         Cu2       1.0000    0.50000   0.50000   0.50000   Biso      1.000     Cu          0.7850600000000001  
         H1        1.0000    0.56960   0.39380   0.71380   Biso      1.000     H          0.099093  
         H2        1.0000    0.95400   0.42080   0.32370   Biso      1.000     H          0.110096  
         H3        1.0000    0.93340   0.74680   0.84130   Biso      1.000     H          0.11573299999999999           
         H4        1.0000    0.43340   0.24680   0.65870   Biso      1.000     H          0.11573299999999999           
         H5        1.0000    0.43040   0.60620   0.28620   Biso      1.000     H          0.099092  
         H6        1.0000    0.04600   0.57920   0.67630   Biso      1.000     H          0.11009300000000001           
         H7        1.0000    0.06660   0.25320   0.15870   Biso      1.000     H          0.11573   
         H8        1.0000    0.56660   0.75320   0.34130   Biso      1.000     H          0.115731  
         H9        1.0000    0.45400   0.92080   0.17630   Biso      1.000     H          0.110096  
         H10       1.0000    0.93040   0.10620   0.21380   Biso      1.000     H          0.099092  
         H11       1.0000    0.16690   0.89540   0.11810   Biso      1.000     H          0.11936600000000001           
         H12       1.0000    0.83310   0.10460   0.88190   Biso      1.000     H          0.11935899999999999           
         H13       1.0000    0.06960   0.89380   0.78620   Biso      1.000     H          0.099093  
         H14       1.0000    0.66690   0.39540   0.38190   Biso      1.000     H          0.119367  
         H15       1.0000    0.33310   0.60460   0.61810   Biso      1.000     H          0.119361  
         H16       1.0000    0.54600   0.07920   0.82370   Biso      1.000     H          0.110095  
         N1        1.0000    0.92170   0.44830   0.63500   Biso      1.000     N          -0.251664           
         N2        1.0000    0.26530   0.49270   0.55970   Biso      1.000     N          -0.188881           
         N3        1.0000    0.42170   0.94830   0.86500   Biso      1.000     N          -0.25166  
         N4        1.0000    0.76530   0.99270   0.94030   Biso      1.000     N          -0.188885           
         N5        1.0000    0.23470   0.00730   0.05970   Biso      1.000     N          -0.188877           
         N6        1.0000    0.57830   0.05170   0.13500   Biso      1.000     N          -0.251663           
         N7        1.0000    0.83840   0.76560   0.29710   Biso      1.000     N          -0.302107           
         N8        1.0000    0.68400   0.58400   0.23770   Biso      1.000     N          -0.292275           
         N9        1.0000    0.66160   0.73440   0.79710   Biso      1.000     N          -0.302109           
         N10       1.0000    0.16160   0.23440   0.70290   Biso      1.000     N          -0.302109           
         N11       1.0000    0.73470   0.50730   0.44030   Biso      1.000     N          -0.188877           
         N12       1.0000    0.07830   0.55170   0.36500   Biso      1.000     N          -0.251663           
         N13       1.0000    0.33840   0.26560   0.20290   Biso      1.000     N          -0.302108           
         N14       1.0000    0.31600   0.41600   0.76230   Biso      1.000     N          -0.29227600000000004          
         N15       1.0000    0.81600   0.91600   0.73770   Biso      1.000     N          -0.29227600000000004          
         N16       1.0000    0.18400   0.08400   0.26230   Biso      1.000     N          -0.292275           
         O1        1.0000    0.30270   0.71530   0.89650   Biso      1.000     O          -0.715612           
         O2        1.0000    0.87370   0.16930   0.04380   Biso      1.000     O          -0.5304260000000001           
         O3        1.0000    0.57430   0.99070   0.64480   Biso      1.000     O          -0.654233           
         O4        1.0000    0.28010   0.64890   0.76940   Biso      1.000     O          -0.637931           
         O5        1.0000    0.26140   0.74660   0.68800   Biso      1.000     O          -0.524626           
         O6        1.0000    0.17890   0.10910   0.95950   Biso      1.000     O          -0.5220670000000001           
         O7        1.0000    0.76140   0.24660   0.81200   Biso      1.000     O          -0.524626           
         O8        1.0000    0.92570   0.50930   0.14480   Biso      1.000     O          -0.654223           
         O9        1.0000    0.78850   0.47750   0.79770   Biso      1.000     O          -0.624645           
         O10       1.0000    0.67890   0.60910   0.54050   Biso      1.000     O          -0.522065           
         O11       1.0000    0.78010   0.14890   0.73060   Biso      1.000     O          -0.63793  
         O12       1.0000    0.42570   0.00930   0.35520   Biso      1.000     O          -0.654225           
         O13       1.0000    0.21150   0.52250   0.20230   Biso      1.000     O          -0.624638           
         O14       1.0000    0.23860   0.75340   0.18800   Biso      1.000     O          -0.524625           
         O15       1.0000    0.07430   0.49070   0.85520   Biso      1.000     O          -0.6542319999999999           
         O16       1.0000    0.06940   0.26460   0.48140   Biso      1.000     O          -0.548253           
         O17       1.0000    0.69730   0.28470   0.10350   Biso      1.000     O          -0.7156   
         O18       1.0000    0.82110   0.89090   0.04050   Biso      1.000     O          -0.522073           
         O19       1.0000    0.62630   0.33070   0.54380   Biso      1.000     O          -0.530429           
         O20       1.0000    0.21990   0.85110   0.26940   Biso      1.000     O          -0.6379199999999999           
         O21       1.0000    0.19730   0.78470   0.39650   Biso      1.000     O          -0.7156   
         O22       1.0000    0.32110   0.39090   0.45950   Biso      1.000     O          -0.522071           
         O23       1.0000    0.73860   0.25340   0.31200   Biso      1.000     O          -0.524626           
         O24       1.0000    0.56940   0.76460   0.01860   Biso      1.000     O          -0.548255           
         O25       1.0000    0.37370   0.66930   0.45620   Biso      1.000     O          -0.530425           
         O26       1.0000    0.71990   0.35110   0.23060   Biso      1.000     O          -0.637921           
         O27       1.0000    0.12630   0.83070   0.95620   Biso      1.000     O          -0.530431           
         O28       1.0000    0.93060   0.73540   0.51860   Biso      1.000     O          -0.548247           
         O29       1.0000    0.80270   0.21530   0.60350   Biso      1.000     O          -0.715612           
         O30       1.0000    0.71150   0.02250   0.29770   Biso      1.000     O          -0.624639           
         O31       1.0000    0.43060   0.23540   0.98140   Biso      1.000     O          -0.548248           
         O32       1.0000    0.28850   0.97750   0.70230   Biso      1.000     O          -0.624645 