
##########################################################################
#               Crystallographic Information Format file
#               Produced by PyCifRW module
#
#  This is a CIF file.  CIF has been adopted by the International
#  Union of Crystallography as the standard for data archiving and
#  transmission.
#
#  For information on this file format, follow the CIF links at
#  http://www.iucr.org
##########################################################################

data_image0

_cell_length_a                          6.0928
_cell_length_b                          12.1183
_cell_length_c                          22.577
_cell_angle_alpha                       90
_cell_angle_beta                        90
_cell_angle_gamma                       90.6431
_symmetry_space_group_name_H-M          'P 1'
_symmetry_int_tables_number             1
loop_
  _symmetry_equiv_pos_as_xyz
         'x, y, z' 
loop_
  _atom_site_label
  _atom_site_occupancy
  _atom_site_fract_x
  _atom_site_fract_y
  _atom_site_fract_z
  _atom_site_thermal_displace_type
  _atom_site_B_iso_or_equiv
  _atom_site_type_symbol
  _atom_site_charge
         C1        1.0000    0.14460   0.27690   0.31090   Biso      1.000     C          0.077934  
         C2        1.0000    0.83700   0.27910   0.73650   Biso      1.000     C          0.558405  
         C3        1.0000    0.33700   0.77910   0.76350   Biso      1.000     C          0.55841   
         C4        1.0000    0.23100   0.94670   0.89180   Biso      1.000     C          0.069465  
         C5        1.0000    0.61150   0.61860   0.77220   Biso      1.000     C          0.056559  
         C6        1.0000    0.78140   0.19740   0.92210   Biso      1.000     C          0.598155  
         C7        1.0000    0.67510   0.65340   0.49210   Biso      1.000     C          0.533027  
         C8        1.0000    0.45730   0.28450   0.25610   Biso      1.000     C          0.061158  
         C9        1.0000    0.73100   0.44670   0.60820   Biso      1.000     C          0.06945   
         C10       1.0000    0.06760   0.36720   0.27910   Biso      1.000     C          0.058117  
         C11       1.0000    0.87680   0.90940   0.04850   Biso      1.000     C          0.028548  
         C12       1.0000    0.21860   0.80260   0.07790   Biso      1.000     C          0.598159  
         C13       1.0000    0.04810   0.88870   0.08730   Biso      1.000     C          0.071224  
         C14       1.0000    0.54810   0.38870   0.41270   Biso      1.000     C          0.071208  
         C15       1.0000    0.28140   0.69740   0.57790   Biso      1.000     C          0.598175  
         C16       1.0000    0.62320   0.59060   0.54850   Biso      1.000     C          0.028564  
         C17       1.0000    0.26900   0.55330   0.39180   Biso      1.000     C          0.069446  
         C18       1.0000    0.37680   0.40940   0.45150   Biso      1.000     C          0.028566  
         C19       1.0000    0.82490   0.84660   0.99210   Biso      1.000     C          0.53303   
         C20       1.0000    0.44060   0.53120   0.35440   Biso      1.000     C          0.077821  
         C21       1.0000    0.38850   0.38140   0.22780   Biso      1.000     C          0.056563  
         C22       1.0000    0.93240   0.63280   0.72090   Biso      1.000     C          0.058117  
         C23       1.0000    0.71860   0.30260   0.42210   Biso      1.000     C          0.598179  
         C24       1.0000    0.85540   0.72310   0.68910   Biso      1.000     C          0.077933  
         C25       1.0000    0.47550   0.54260   0.81190   Biso      1.000     C          0.605699  
         C26       1.0000    0.94060   0.03120   0.14560   Biso      1.000     C          0.077871  
         C27       1.0000    0.97550   0.04260   0.68810   Biso      1.000     C          0.605691  
         C28       1.0000    0.66300   0.22090   0.23650   Biso      1.000     C          0.558425  
         C29       1.0000    0.88850   0.88140   0.27220   Biso      1.000     C          0.05657   
         C30       1.0000    0.64460   0.77690   0.18910   Biso      1.000     C          0.077908  
         C31       1.0000    0.45190   0.61130   0.58730   Biso      1.000     C          0.071209  
         C32       1.0000    0.76900   0.05330   0.10820   Biso      1.000     C          0.069465  
         C33       1.0000    0.55940   0.46880   0.64560   Biso      1.000     C          0.077829  
         C34       1.0000    0.16300   0.72090   0.26350   Biso      1.000     C          0.558417  
         C35       1.0000    0.05940   0.96880   0.85440   Biso      1.000     C          0.077879  
         C36       1.0000    0.04270   0.21550   0.75610   Biso      1.000     C          0.061169  
         C37       1.0000    0.35540   0.22310   0.81090   Biso      1.000     C          0.077903  
         C38       1.0000    0.32490   0.34660   0.50790   Biso      1.000     C          0.533024  
         C39       1.0000    0.52450   0.45740   0.18810   Biso      1.000     C          0.60571   
         C40       1.0000    0.95190   0.11130   0.91270   Biso      1.000     C          0.071219  
         C41       1.0000    0.12320   0.09060   0.95150   Biso      1.000     C          0.028552  
         C42       1.0000    0.11150   0.11860   0.72780   Biso      1.000     C          0.056565  
         C43       1.0000    0.54270   0.71550   0.74390   Biso      1.000     C          0.061155  
         C44       1.0000    0.95730   0.78450   0.24390   Biso      1.000     C          0.061165  
         C45       1.0000    0.17510   0.15340   0.00790   Biso      1.000     C          0.533027  
         C46       1.0000    0.56760   0.86720   0.22090   Biso      1.000     C          0.058095  
         C47       1.0000    0.43240   0.13280   0.77910   Biso      1.000     C          0.05809   
         C48       1.0000    0.02450   0.95740   0.31190   Biso      1.000     C          0.605699  
         Cu1       1.0000    0.00000   0.50000   0.50000   Biso      1.000     Cu          0.839972  
         Cu2       1.0000    0.50000   0.00000   0.00000   Biso      1.000     Cu          0.839855  
         Eu1       1.0000    0.54648   0.05679   0.35076   Biso      1.000     Eu          1.367375  
         Eu2       1.0000    0.04648   0.55679   0.14924   Biso      1.000     Eu          1.367348  
         Eu3       1.0000    0.95352   0.44321   0.85076   Biso      1.000     Eu          1.367337  
         Eu4       1.0000    0.45352   0.94321   0.64924   Biso      1.000     Eu          1.367371  
         H1        1.0000    0.67450   0.11090   0.11670   Biso      1.000     H          0.128112  
         H2        1.0000    0.45300   0.26800   0.84400   Biso      1.000     H          0.114336  
         H3        1.0000    0.82550   0.38910   0.61670   Biso      1.000     H          0.128096  
         H4        1.0000    0.17450   0.61090   0.38330   Biso      1.000     H          0.128097  
         H5        1.0000    0.96000   0.07460   0.17920   Biso      1.000     H          0.116767  
         H6        1.0000    0.46000   0.57460   0.32080   Biso      1.000     H          0.116757  
         H7        1.0000    0.42840   0.89350   0.21230   Biso      1.000     H          0.09459   
         H8        1.0000    0.57160   0.10650   0.78770   Biso      1.000     H          0.094588  
         H9        1.0000    0.95300   0.76800   0.65600   Biso      1.000     H          0.114342  
         H10       1.0000    0.92840   0.39350   0.28770   Biso      1.000     H          0.094588  
         H11       1.0000    0.04000   0.92540   0.82080   Biso      1.000     H          0.116767  
         H12       1.0000    0.32550   0.88910   0.88330   Biso      1.000     H          0.128113  
         H13       1.0000    0.04700   0.23200   0.34400   Biso      1.000     H          0.114345  
         H14       1.0000    0.54000   0.42540   0.67920   Biso      1.000     H          0.116761  
         H15       1.0000    0.54700   0.73200   0.15600   Biso      1.000     H          0.114339  
         H16       1.0000    0.07160   0.60650   0.71230   Biso      1.000     H          0.094584  
         N1        1.0000    0.23730   0.49210   0.44040   Biso      1.000     N          -0.178964           
         N2        1.0000    0.81660   0.58300   0.76270   Biso      1.000     N          -0.22368  
         N3        1.0000    0.18340   0.41700   0.23730   Biso      1.000     N          -0.223679           
         N4        1.0000    0.83730   0.73320   0.20290   Biso      1.000     N          -0.242625           
         N5        1.0000    0.41860   0.55090   0.63520   Biso      1.000     N          -0.213316           
         N6        1.0000    0.68340   0.91700   0.26270   Biso      1.000     N          -0.223664           
         N7        1.0000    0.91860   0.05090   0.86480   Biso      1.000     N          -0.213253           
         N8        1.0000    0.76270   0.50790   0.55960   Biso      1.000     N          -0.178964           
         N9        1.0000    0.16270   0.26680   0.79710   Biso      1.000     N          -0.242613           
         N10       1.0000    0.58140   0.44910   0.36480   Biso      1.000     N          -0.213316           
         N11       1.0000    0.66270   0.76680   0.70290   Biso      1.000     N          -0.242625           
         N12       1.0000    0.33730   0.23320   0.29710   Biso      1.000     N          -0.242624           
         N13       1.0000    0.26270   0.00790   0.94040   Biso      1.000     N          -0.178902           
         N14       1.0000    0.73730   0.99210   0.05960   Biso      1.000     N          -0.1789   
         N15       1.0000    0.31660   0.08300   0.73730   Biso      1.000     N          -0.223654           
         N16       1.0000    0.08140   0.94910   0.13520   Biso      1.000     N          -0.213256           
         O1        1.0000    0.42620   0.25830   0.51730   Biso      1.000     O          -0.423814           
         O2        1.0000    0.92620   0.75830   0.98270   Biso      1.000     O          -0.423748           
         O3        1.0000    0.62160   0.17200   0.95510   Biso      1.000     O          -0.539593           
         O4        1.0000    0.07950   0.00330   0.64490   Biso      1.000     O          -0.575249           
         O5        1.0000    0.21800   0.97960   0.29920   Biso      1.000     O          -0.57547  
         O6        1.0000    0.20020   0.71280   0.10540   Biso      1.000     O          -0.587214           
         O7        1.0000    0.87840   0.32800   0.45510   Biso      1.000     O          -0.539564           
         O8        1.0000    0.29980   0.78720   0.60540   Biso      1.000     O          -0.587326           
         O9        1.0000    0.22270   0.64630   0.22990   Biso      1.000     O          -0.585436           
         O10       1.0000    0.78200   0.02040   0.70080   Biso      1.000     O          -0.575479           
         O11       1.0000    0.18320   0.38900   0.54110   Biso      1.000     O          -0.451605           
         O12       1.0000    0.12160   0.67200   0.54490   Biso      1.000     O          -0.53956  
         O13       1.0000    0.31680   0.11100   0.04110   Biso      1.000     O          -0.451559           
         O14       1.0000    0.28200   0.52040   0.79920   Biso      1.000     O          -0.575454           
         O15       1.0000    0.57950   0.50330   0.85510   Biso      1.000     O          -0.575321           
         O16       1.0000    0.57380   0.74170   0.48270   Biso      1.000     O          -0.42381  
         O17       1.0000    0.70020   0.21280   0.39460   Biso      1.000     O          -0.587334           
         O18       1.0000    0.79980   0.28720   0.89460   Biso      1.000     O          -0.587213           
         O19       1.0000    0.68320   0.88900   0.95890   Biso      1.000     O          -0.451557           
         O20       1.0000    0.07380   0.24170   0.01730   Biso      1.000     O          -0.423745           
         O21       1.0000    0.77730   0.35370   0.77010   Biso      1.000     O          -0.585447           
         O22       1.0000    0.81680   0.61100   0.45890   Biso      1.000     O          -0.451605           
         O23       1.0000    0.71800   0.47960   0.20080   Biso      1.000     O          -0.575457           
         O24       1.0000    0.75820   0.25390   0.68790   Biso      1.000     O          -0.440289           
         O25       1.0000    0.72270   0.14630   0.27010   Biso      1.000     O          -0.585436           
         O26       1.0000    0.74180   0.24610   0.18790   Biso      1.000     O          -0.440376           
         O27       1.0000    0.24180   0.74610   0.31210   Biso      1.000     O          -0.440307           
         O28       1.0000    0.37840   0.82800   0.04490   Biso      1.000     O          -0.539592           
         O29       1.0000    0.92050   0.99670   0.35510   Biso      1.000     O          -0.575264           
         O30       1.0000    0.42050   0.49670   0.14490   Biso      1.000     O          -0.575321           
         O31       1.0000    0.27730   0.85370   0.72990   Biso      1.000     O          -0.585433           
         O32       1.0000    0.25820   0.75390   0.81210   Biso      1.000     O          -0.440374 