
##########################################################################
#               Crystallographic Information Format file
#               Produced by PyCifRW module
#
#  This is a CIF file.  CIF has been adopted by the International
#  Union of Crystallography as the standard for data archiving and
#  transmission.
#
#  For information on this file format, follow the CIF links at
#  http://www.iucr.org
##########################################################################

data_image0

_cell_length_a                          6.0991
_cell_length_b                          12.4168
_cell_length_c                          23.469
_cell_angle_alpha                       90
_cell_angle_beta                        90
_cell_angle_gamma                       94.4906
_symmetry_space_group_name_H-M          'P 1'
_symmetry_int_tables_number             1
loop_
  _symmetry_equiv_pos_as_xyz
         'x, y, z' 
loop_
  _atom_site_label
  _atom_site_occupancy
  _atom_site_fract_x
  _atom_site_fract_y
  _atom_site_fract_z
  _atom_site_thermal_displace_type
  _atom_site_B_iso_or_equiv
  _atom_site_type_symbol
  _atom_site_charge
         C1        1.0000    0.46780   0.07390   0.40340   Biso      1.000     C          0.062282000000000004          
         C2        1.0000    0.73690   0.91330   0.39800   Biso      1.000     C          0.060594  
         C3        1.0000    0.40390   0.82670   0.75204   Biso      1.000     C          0.08001699999999999           
         C4        1.0000    0.59610   0.17330   0.24796   Biso      1.000     C          0.08001699999999999           
         C5        1.0000    0.81680   0.35710   0.99230   Biso      1.000     C          0.550296  
         C6        1.0000    0.92690   0.57740   0.85860   Biso      1.000     C          0.055725  
         C7        1.0000    0.57310   0.92260   0.35860   Biso      1.000     C          0.055732000000000004          
         C8        1.0000    0.01850   0.49000   0.30410   Biso      1.000     C          0.656968  
         C9        1.0000    0.30650   0.16000   0.40580   Biso      1.000     C          0.651304  
         C10       1.0000    0.03220   0.42610   0.90340   Biso      1.000     C          0.062282000000000004          
         C11       1.0000    0.60400   0.30990   0.80730   Biso      1.000     C          0.09235   
         C12       1.0000    0.36550   0.93430   0.55660   Biso      1.000     C          0.03151   
         C13       1.0000    0.69350   0.84000   0.59420   Biso      1.000     C          0.651304  
         C14       1.0000    0.63450   0.06570   0.44340   Biso      1.000     C          0.03151   
         C15       1.0000    0.68320   0.14290   0.49230   Biso      1.000     C          0.550296  
         C16       1.0000    0.89600   0.19010   0.30730   Biso      1.000     C          0.09235   
         C17       1.0000    0.90390   0.32670   0.74796   Biso      1.000     C          0.08001699999999999           
         C18       1.0000    0.48150   0.01000   0.80410   Biso      1.000     C          0.656967  
         C19       1.0000    0.08830   0.26810   0.72160   Biso      1.000     C          0.580979  
         C20       1.0000    0.18320   0.64290   0.00770   Biso      1.000     C          0.550297  
         C21       1.0000    0.41170   0.23190   0.22160   Biso      1.000     C          0.580979  
         C22       1.0000    0.39600   0.69010   0.19270   Biso      1.000     C          0.092351  
         C23       1.0000    0.91170   0.73190   0.27840   Biso      1.000     C          0.580979  
         C24       1.0000    0.58830   0.76810   0.77840   Biso      1.000     C          0.580979  
         C25       1.0000    0.65890   0.07320   0.22989   Biso      1.000     C          0.054308  
         C26       1.0000    0.15890   0.57320   0.27011   Biso      1.000     C          0.05430700000000001           
         C27       1.0000    0.51850   0.99000   0.19590   Biso      1.000     C          0.656967  
         C28       1.0000    0.13450   0.56570   0.05660   Biso      1.000     C          0.03151   
         C29       1.0000    0.86550   0.43430   0.94340   Biso      1.000     C          0.031511000000000004          
         C30       1.0000    0.52640   0.40120   0.78290   Biso      1.000     C          0.089036  
         C31       1.0000    0.42690   0.07740   0.64140   Biso      1.000     C          0.055725  
         C32       1.0000    0.19350   0.34000   0.90580   Biso      1.000     C          0.651304  
         C33       1.0000    0.47360   0.59880   0.21710   Biso      1.000     C          0.089037  
         C34       1.0000    0.53220   0.92610   0.59660   Biso      1.000     C          0.062282000000000004          
         C35       1.0000    0.07310   0.42260   0.14140   Biso      1.000     C          0.055724  
         C36       1.0000    0.97360   0.09880   0.28290   Biso      1.000     C          0.089037  
         C37       1.0000    0.09610   0.67330   0.25204   Biso      1.000     C          0.08001699999999999           
         C38       1.0000    0.80650   0.66000   0.09420   Biso      1.000     C          0.651304  
         C39       1.0000    0.10400   0.80990   0.69270   Biso      1.000     C          0.09235   
         C40       1.0000    0.31680   0.85710   0.50770   Biso      1.000     C          0.550297  
         C41       1.0000    0.26310   0.08670   0.60200   Biso      1.000     C          0.060603  
         C42       1.0000    0.98150   0.51000   0.69590   Biso      1.000     C          0.656967  
         C43       1.0000    0.23690   0.41330   0.10200   Biso      1.000     C          0.060603  
         C44       1.0000    0.34110   0.92680   0.77011   Biso      1.000     C          0.05430700000000001           
         C45       1.0000    0.02640   0.90120   0.71710   Biso      1.000     C          0.089037  
         C46       1.0000    0.76310   0.58670   0.89800   Biso      1.000     C          0.060601999999999996          
         C47       1.0000    0.96780   0.57390   0.09660   Biso      1.000     C          0.062282000000000004          
         C48       1.0000    0.84110   0.42680   0.72989   Biso      1.000     C          0.054308  
         Cu1       1.0000    0.50000   0.50000   0.00000   Biso      1.000     Cu          0.783802  
         Cu2       1.0000    0.00000   0.00000   0.50000   Biso      1.000     Cu          0.783802  
         Dy1       1.0000    0.50801   0.60885   0.66825   Biso      1.000     Dy          2.000788  
         Dy2       1.0000    0.49199   0.39115   0.33175   Biso      1.000     Dy          2.000794  
         Dy3       1.0000    0.99199   0.89115   0.16825   Biso      1.000     Dy          2.000789  
         Dy4       1.0000    0.00801   0.10885   0.83175   Biso      1.000     Dy          2.000789  
         H1        1.0000    0.47300   0.51800   0.39540   Biso      1.000     H          0.420683  
         H2        1.0000    0.67220   0.64320   0.89510   Biso      1.000     H          0.118074  
         H3        1.0000    0.38930   0.42200   0.79380   Biso      1.000     H          0.101963  
         H4        1.0000    0.02680   0.77580   0.66280   Biso      1.000     H          0.114468  
         H5        1.0000    0.47320   0.72420   0.16280   Biso      1.000     H          0.114468  
         H6        1.0000    0.50520   0.37420   0.61700   Biso      1.000     H          0.528207  
         H7        1.0000    0.82780   0.85680   0.39510   Biso      1.000     H          0.118074  
         H8        1.0000    0.99480   0.12580   0.11700   Biso      1.000     H          0.528209  
         H9        1.0000    0.05460   0.37140   0.17020   Biso      1.000     H          0.103823  
         H10       1.0000    0.52680   0.27580   0.83720   Biso      1.000     H          0.114468  
         H11       1.0000    0.32780   0.35680   0.10490   Biso      1.000     H          0.118074  
         H12       1.0000    0.97320   0.22420   0.33720   Biso      1.000     H          0.114468  
         H13       1.0000    0.17220   0.14320   0.60490   Biso      1.000     H          0.118074  
         H14       1.0000    0.94540   0.62860   0.82980   Biso      1.000     H          0.103823  
         H15       1.0000    0.11070   0.07800   0.29380   Biso      1.000     H          0.101964  
         H16       1.0000    0.44540   0.12860   0.67020   Biso      1.000     H          0.103823  
         H17       1.0000    0.52700   0.48200   0.60460   Biso      1.000     H          0.42068   
         H18       1.0000    0.02700   0.98200   0.89540   Biso      1.000     H          0.42068199999999994           
         H19       1.0000    0.61070   0.57800   0.20620   Biso      1.000     H          0.101964  
         H20       1.0000    0.49480   0.62580   0.38300   Biso      1.000     H          0.528211  
         H21       1.0000    0.88930   0.92200   0.70620   Biso      1.000     H          0.101964  
         H22       1.0000    0.97300   0.01800   0.10460   Biso      1.000     H          0.420681  
         H23       1.0000    0.00520   0.87420   0.88300   Biso      1.000     H          0.528211  
         H24       1.0000    0.55460   0.87140   0.32980   Biso      1.000     H          0.103822  
         N1        1.0000    0.78880   0.26990   0.78837   Biso      1.000     N          -0.319458           
         N2        1.0000    0.93840   0.50330   0.13961   Biso      1.000     N          -0.244189           
         N3        1.0000    0.14240   0.96010   0.75589   Biso      1.000     N          -0.276852           
         N4        1.0000    0.06160   0.49670   0.86039   Biso      1.000     N          -0.24418800000000002          
         N5        1.0000    0.35760   0.53990   0.25589   Biso      1.000     N          -0.276853           
         N6        1.0000    0.76710   0.98430   0.44022   Biso      1.000     N          -0.184285           
         N7        1.0000    0.56160   0.99670   0.63961   Biso      1.000     N          -0.24418800000000002          
         N8        1.0000    0.23290   0.01570   0.55978   Biso      1.000     N          -0.18428599999999998          
         N9        1.0000    0.73290   0.51570   0.94022   Biso      1.000     N          -0.18428599999999998          
         N10       1.0000    0.21120   0.73010   0.21163   Biso      1.000     N          -0.319457           
         N11       1.0000    0.43840   0.00330   0.36039   Biso      1.000     N          -0.244189           
         N12       1.0000    0.85760   0.03990   0.24411   Biso      1.000     N          -0.276853           
         N13       1.0000    0.71120   0.23010   0.28837   Biso      1.000     N          -0.319458           
         N14       1.0000    0.26710   0.48430   0.05978   Biso      1.000     N          -0.18428599999999998          
         N15       1.0000    0.64240   0.46010   0.74411   Biso      1.000     N          -0.276853           
         N16       1.0000    0.28880   0.76990   0.71163   Biso      1.000     N          -0.319457           
         O1        1.0000    0.03010   0.06480   0.12609   Biso      1.000     O          -0.890782           
         O2        1.0000    0.85330   0.85500   0.56328   Biso      1.000     O          -0.523575           
         O3        1.0000    0.15390   0.19150   0.75006   Biso      1.000     O          -0.675343           
         O4        1.0000    0.64890   0.79490   0.82727   Biso      1.000     O          -0.5008319999999999           
         O5        1.0000    0.15490   0.26140   0.87234   Biso      1.000     O          -0.749496           
         O6        1.0000    0.87880   0.56680   0.66200   Biso      1.000     O          -0.6721520000000001           
         O7        1.0000    0.18260   0.52050   0.70606   Biso      1.000     O          -0.628242           
         O8        1.0000    0.32500   0.61420   0.97179   Biso      1.000     O          -0.535762           
         O9        1.0000    0.12120   0.43320   0.33800   Biso      1.000     O          -0.67215  
         O10       1.0000    0.53010   0.56480   0.37391   Biso      1.000     O          -0.8907809999999999           
         O11       1.0000    0.81740   0.47950   0.29394   Biso      1.000     O          -0.6282409999999999           
         O12       1.0000    0.14670   0.14500   0.43672   Biso      1.000     O          -0.523575           
         O13       1.0000    0.46990   0.43520   0.62609   Biso      1.000     O          -0.890782           
         O14       1.0000    0.08880   0.72620   0.00451   Biso      1.000     O          -0.544324           
         O15       1.0000    0.58880   0.22620   0.49549   Biso      1.000     O          -0.544323           
         O16       1.0000    0.67500   0.38580   0.02821   Biso      1.000     O          -0.535763           
         O17       1.0000    0.17500   0.88580   0.47179   Biso      1.000     O          -0.535763           
         O18       1.0000    0.41120   0.77380   0.50451   Biso      1.000     O          -0.544324           
         O19       1.0000    0.91120   0.27380   0.99549   Biso      1.000     O          -0.544324           
         O20       1.0000    0.35110   0.20510   0.17273   Biso      1.000     O          -0.5008319999999999           
         O21       1.0000    0.82500   0.11420   0.52821   Biso      1.000     O          -0.535762           
         O22       1.0000    0.34610   0.30850   0.25006   Biso      1.000     O          -0.675342           
         O23       1.0000    0.35330   0.35500   0.93672   Biso      1.000     O          -0.523575           
         O24       1.0000    0.34510   0.23860   0.37234   Biso      1.000     O          -0.7494970000000001           
         O25       1.0000    0.64670   0.64500   0.06328   Biso      1.000     O          -0.523574           
         O26       1.0000    0.68260   0.02050   0.79394   Biso      1.000     O          -0.6282409999999999           
         O27       1.0000    0.14890   0.29490   0.67273   Biso      1.000     O          -0.500833           
         O28       1.0000    0.96990   0.93520   0.87391   Biso      1.000     O          -0.890782           
         O29       1.0000    0.37880   0.06680   0.83800   Biso      1.000     O          -0.672151           
         O30       1.0000    0.65390   0.69150   0.74994   Biso      1.000     O          -0.675342           
         O31       1.0000    0.84510   0.73860   0.12766   Biso      1.000     O          -0.7494970000000001           
         O32       1.0000    0.31740   0.97950   0.20606   Biso      1.000     O          -0.6282409999999999           
         O33       1.0000    0.65490   0.76140   0.62766   Biso      1.000     O          -0.749496           
         O34       1.0000    0.84610   0.80850   0.24994   Biso      1.000     O          -0.675342           
         O35       1.0000    0.85110   0.70510   0.32727   Biso      1.000     O          -0.5008319999999999           
         O36       1.0000    0.62120   0.93320   0.16200   Biso      1.000     O          -0.672151 