
##########################################################################
#               Crystallographic Information Format file
#               Produced by PyCifRW module
#
#  This is a CIF file.  CIF has been adopted by the International
#  Union of Crystallography as the standard for data archiving and
#  transmission.
#
#  For information on this file format, follow the CIF links at
#  http://www.iucr.org
##########################################################################

data_image0

_cell_length_a                          13.1723
_cell_length_b                          13.1723
_cell_length_c                          15.867
_cell_angle_alpha                       92.6837
_cell_angle_beta                        92.6837
_cell_angle_gamma                       109.093
_symmetry_space_group_name_H-M          'P 1'
_symmetry_int_tables_number             1
loop_
  _symmetry_equiv_pos_as_xyz
         'x, y, z' 
loop_
  _atom_site_label
  _atom_site_occupancy
  _atom_site_fract_x
  _atom_site_fract_y
  _atom_site_fract_z
  _atom_site_thermal_displace_type
  _atom_site_B_iso_or_equiv
  _atom_site_type_symbol
  _atom_site_charge
         C1        1.0000    0.54620   0.22560   0.90530   Biso      1.000     C          -0.030914           
         C2        1.0000    0.25350   0.25390   0.11280   Biso      1.000     C          0.086549  
         C3        1.0000    0.92970   0.94150   0.05660   Biso      1.000     C          -0.032082           
         C4        1.0000    0.51900   0.83700   0.79990   Biso      1.000     C          -0.143955           
         C5        1.0000    0.41880   0.14320   0.36280   Biso      1.000     C          -0.103621           
         C6        1.0000    0.78900   0.02420   0.01110   Biso      1.000     C          -0.494027           
         C7        1.0000    0.03810   0.55870   0.32060   Biso      1.000     C          0.074641  
         C8        1.0000    0.85170   0.87650   0.11480   Biso      1.000     C          -0.072817           
         C9        1.0000    0.14830   0.12350   0.88520   Biso      1.000     C          -0.072816           
         C10       1.0000    0.67920   0.75160   0.22490   Biso      1.000     C          -0.191978           
         C11       1.0000    0.94150   0.92970   0.55660   Biso      1.000     C          -0.032088           
         C12       1.0000    0.93980   0.55580   0.26990   Biso      1.000     C          0.065285  
         C13       1.0000    0.67420   0.46900   0.55660   Biso      1.000     C          0.587353  
         C14       1.0000    0.38260   0.31420   0.71920   Biso      1.000     C          0.116398  
         C15       1.0000    0.50960   0.74640   0.74950   Biso      1.000     C          -0.096486           
         C16       1.0000    0.77730   0.82250   0.25170   Biso      1.000     C          0.178142  
         C17       1.0000    0.76850   0.37890   0.65500   Biso      1.000     C          -0.103427           
         C18       1.0000    0.03020   0.92920   0.05090   Biso      1.000     C          0.054999  
         C19       1.0000    0.53100   0.32580   0.94340   Biso      1.000     C          0.587354  
         C20       1.0000    0.81680   0.81300   0.83540   Biso      1.000     C          -0.200039           
         C21       1.0000    0.94650   0.58890   0.18750   Biso      1.000     C          -0.155293           
         C22       1.0000    0.55870   0.03810   0.82060   Biso      1.000     C          0.074642  
         C23       1.0000    0.05350   0.41110   0.81250   Biso      1.000     C          -0.155294           
         C24       1.0000    0.24500   0.45960   0.83300   Biso      1.000     C          -0.033342           
         C25       1.0000    0.96980   0.07080   0.94910   Biso      1.000     C          0.055     
         C26       1.0000    0.23150   0.62110   0.34500   Biso      1.000     C          -0.103426           
         C27       1.0000    0.85680   0.58120   0.13720   Biso      1.000     C          -0.103611           
         C28       1.0000    0.06020   0.44420   0.73010   Biso      1.000     C          0.065285  
         C29       1.0000    0.17750   0.22270   0.24830   Biso      1.000     C          0.178131  
         C30       1.0000    0.34190   0.47050   0.89040   Biso      1.000     C          0.59083   
         C31       1.0000    0.51510   0.87390   0.07290   Biso      1.000     C          -0.113308           
         C32       1.0000    0.14700   0.11020   0.80510   Biso      1.000     C          -0.15906  
         C33       1.0000    0.06570   0.85330   0.10470   Biso      1.000     C          -0.50184  
         C34       1.0000    0.12350   0.14830   0.38520   Biso      1.000     C          -0.072816           
         C35       1.0000    0.32080   0.24840   0.77510   Biso      1.000     C          -0.191971           
         C36       1.0000    0.45380   0.77440   0.09470   Biso      1.000     C          -0.030905           
         C37       1.0000    0.61740   0.68580   0.28080   Biso      1.000     C          0.116405  
         C38       1.0000    0.98870   0.10110   0.49360   Biso      1.000     C          0.050798  
         C39       1.0000    0.46900   0.67420   0.05660   Biso      1.000     C          0.587354  
         C40       1.0000    0.02420   0.78900   0.51110   Biso      1.000     C          -0.494027           
         C41       1.0000    0.74610   0.74650   0.38720   Biso      1.000     C          0.086549  
         C42       1.0000    0.01130   0.89890   0.50640   Biso      1.000     C          0.050797  
         C43       1.0000    0.52950   0.65810   0.60960   Biso      1.000     C          0.590829  
         C44       1.0000    0.92920   0.03020   0.55090   Biso      1.000     C          0.054999  
         C45       1.0000    0.48100   0.16300   0.20010   Biso      1.000     C          -0.143955           
         C46       1.0000    0.58890   0.94650   0.68750   Biso      1.000     C          -0.155293           
         C47       1.0000    0.07080   0.96980   0.44910   Biso      1.000     C          0.055     
         C48       1.0000    0.83700   0.51900   0.29990   Biso      1.000     C          -0.143955           
         C49       1.0000    0.14320   0.41880   0.86280   Biso      1.000     C          -0.103611           
         C50       1.0000    0.48490   0.12610   0.92710   Biso      1.000     C          -0.1133   
         C51       1.0000    0.44130   0.96190   0.17940   Biso      1.000     C          0.074642  
         C52       1.0000    0.97580   0.21100   0.48890   Biso      1.000     C          -0.494028           
         C53       1.0000    0.18700   0.18320   0.66460   Biso      1.000     C          -0.20004  
         C54       1.0000    0.93430   0.14670   0.89530   Biso      1.000     C          -0.50184  
         C55       1.0000    0.89890   0.01130   0.00640   Biso      1.000     C          0.050796  
         C56       1.0000    0.03370   0.48990   0.38520   Biso      1.000     C          -0.146815           
         C57       1.0000    0.21100   0.97580   0.98890   Biso      1.000     C          -0.494027           
         C58       1.0000    0.87390   0.51510   0.57290   Biso      1.000     C          -0.113309           
         C59       1.0000    0.96190   0.44130   0.67940   Biso      1.000     C          0.074641  
         C60       1.0000    0.88980   0.85300   0.69490   Biso      1.000     C          -0.159125           
         C61       1.0000    0.62780   0.14000   0.80450   Biso      1.000     C          -0.154088           
         C62       1.0000    0.74650   0.74610   0.88720   Biso      1.000     C          0.08655   
         C63       1.0000    0.85330   0.06570   0.60470   Biso      1.000     C          -0.501841           
         C64       1.0000    0.44420   0.06020   0.23010   Biso      1.000     C          0.065284  
         C65       1.0000    0.68580   0.61740   0.78080   Biso      1.000     C          0.116396  
         C66       1.0000    0.54040   0.75500   0.66700   Biso      1.000     C          -0.033337           
         C67       1.0000    0.11020   0.14700   0.30510   Biso      1.000     C          -0.15906  
         C68       1.0000    0.86000   0.37220   0.69550   Biso      1.000     C          -0.154082           
         C69       1.0000    0.58120   0.85680   0.63720   Biso      1.000     C          -0.103611           
         C70       1.0000    0.49040   0.25360   0.25050   Biso      1.000     C          -0.096486           
         C71       1.0000    0.48990   0.03370   0.88520   Biso      1.000     C          -0.146811           
         C72       1.0000    0.62110   0.23150   0.84500   Biso      1.000     C          -0.103419           
         C73       1.0000    0.22270   0.17750   0.74830   Biso      1.000     C          0.17814   
         C74       1.0000    0.55580   0.93980   0.76990   Biso      1.000     C          0.065286  
         C75       1.0000    0.22560   0.54620   0.40530   Biso      1.000     C          -0.030913           
         C76       1.0000    0.10110   0.98870   0.99360   Biso      1.000     C          0.050797  
         C77       1.0000    0.37220   0.86000   0.19550   Biso      1.000     C          -0.154088           
         C78       1.0000    0.37890   0.76850   0.15500   Biso      1.000     C          -0.10342  
         C79       1.0000    0.82250   0.77730   0.75170   Biso      1.000     C          0.178137  
         C80       1.0000    0.31420   0.38260   0.21920   Biso      1.000     C          0.116397  
         C81       1.0000    0.74640   0.50960   0.24950   Biso      1.000     C          -0.096485           
         C82       1.0000    0.75500   0.54040   0.16700   Biso      1.000     C          -0.033338           
         C83       1.0000    0.81300   0.81680   0.33540   Biso      1.000     C          -0.20004  
         C84       1.0000    0.85300   0.88980   0.19490   Biso      1.000     C          -0.159061           
         C85       1.0000    0.32580   0.53100   0.44340   Biso      1.000     C          0.587354  
         C86       1.0000    0.14670   0.93430   0.39530   Biso      1.000     C          -0.501841           
         C87       1.0000    0.47050   0.34190   0.39040   Biso      1.000     C          0.590829  
         C88       1.0000    0.25360   0.49040   0.75050   Biso      1.000     C          -0.096486           
         C89       1.0000    0.96630   0.51010   0.61480   Biso      1.000     C          -0.14681  
         C90       1.0000    0.75160   0.67920   0.72490   Biso      1.000     C          -0.191961           
         C91       1.0000    0.87650   0.85170   0.61480   Biso      1.000     C          -0.072749           
         C92       1.0000    0.65810   0.52950   0.10960   Biso      1.000     C          0.59083   
         C93       1.0000    0.05850   0.07030   0.44340   Biso      1.000     C          -0.032083           
         C94       1.0000    0.18320   0.18700   0.16460   Biso      1.000     C          -0.200039           
         C95       1.0000    0.16300   0.48100   0.70010   Biso      1.000     C          -0.14395  
         C96       1.0000    0.14000   0.62780   0.30450   Biso      1.000     C          -0.154082           
         C97       1.0000    0.24840   0.32080   0.27510   Biso      1.000     C          -0.19196  
         C98       1.0000    0.41110   0.05350   0.31250   Biso      1.000     C          -0.155284           
         C99       1.0000    0.45960   0.24500   0.33300   Biso      1.000     C          -0.033336           
         C100      1.0000    0.12610   0.48490   0.42710   Biso      1.000     C          -0.113296           
         C101      1.0000    0.77440   0.45380   0.59470   Biso      1.000     C          -0.030903           
         C102      1.0000    0.51010   0.96630   0.11480   Biso      1.000     C          -0.14681  
         C103      1.0000    0.25390   0.25350   0.61280   Biso      1.000     C          0.086551  
         C104      1.0000    0.07030   0.05850   0.94340   Biso      1.000     C          -0.032083           
         H1        1.0000    0.81850   0.79450   0.58910   Biso      1.000     H          0.106163  
         H2        1.0000    0.66770   0.29910   0.83200   Biso      1.000     H          0.113718  
         H3        1.0000    0.13580   0.39620   0.91820   Biso      1.000     H          0.116842  
         H4        1.0000    0.20360   0.90000   0.98870   Biso      1.000     H          0.16549   
         H5        1.0000    0.70090   0.33230   0.66800   Biso      1.000     H          0.113719  
         H6        1.0000    0.90000   0.20360   0.48870   Biso      1.000     H          0.16549   
         H7        1.0000    0.12050   0.43870   0.47120   Biso      1.000     H          0.108445  
         H8        1.0000    0.49990   0.17030   0.14380   Biso      1.000     H          0.113217  
         H9        1.0000    0.43870   0.12050   0.97120   Biso      1.000     H          0.108446  
         H10       1.0000    0.48210   0.67810   0.77110   Biso      1.000     H          0.118731  
         H11       1.0000    0.82970   0.50010   0.35620   Biso      1.000     H          0.113217  
         H12       1.0000    0.94920   0.90860   0.72070   Biso      1.000     H          0.109229  
         H13       1.0000    0.75740   0.99520   0.06240   Biso      1.000     H          0.155298  
         H14       1.0000    0.36130   0.45070   0.23950   Biso      1.000     H          0.095635  
         H15       1.0000    0.22840   0.25740   0.55720   Biso      1.000     H          0.094748  
         H16       1.0000    0.32000   0.85420   0.23510   Biso      1.000     H          0.108389  
         H17       1.0000    0.80530   0.08950   0.56860   Biso      1.000     H          0.163624  
         H18       1.0000    0.74260   0.77160   0.94280   Biso      1.000     H          0.094748  
         H19       1.0000    0.29910   0.66770   0.33200   Biso      1.000     H          0.113719  
         H20       1.0000    0.85420   0.32000   0.73510   Biso      1.000     H          0.108389  
         H21       1.0000    0.96630   0.44570   0.40070   Biso      1.000     H          0.112976  
         H22       1.0000    0.79450   0.81850   0.08910   Biso      1.000     H          0.106167  
         H23       1.0000    0.98580   0.74260   0.46240   Biso      1.000     H          0.161786  
         H24       1.0000    0.19470   0.91050   0.43140   Biso      1.000     H          0.163624  
         H25       1.0000    0.61730   0.01470   0.66590   Biso      1.000     H          0.108117  
         H26       1.0000    0.77160   0.74260   0.44280   Biso      1.000     H          0.094748  
         H27       1.0000    0.01420   0.25740   0.53760   Biso      1.000     H          0.161786  
         H28       1.0000    0.44570   0.96630   0.90070   Biso      1.000     H          0.112976  
         H29       1.0000    0.50010   0.82970   0.85620   Biso      1.000     H          0.113217  
         H30       1.0000    0.18150   0.20550   0.41090   Biso      1.000     H          0.106167  
         H31       1.0000    0.90860   0.94920   0.22070   Biso      1.000     H          0.109225  
         H32       1.0000    0.00580   0.81140   0.13540   Biso      1.000     H          0.151754  
         H33       1.0000    0.24260   0.00480   0.93760   Biso      1.000     H          0.155298  
         H34       1.0000    0.33230   0.70090   0.16800   Biso      1.000     H          0.113718  
         H35       1.0000    0.18860   0.99420   0.36460   Biso      1.000     H          0.151754  
         H36       1.0000    0.79640   0.10000   0.01130   Biso      1.000     H          0.16549   
         H37       1.0000    0.34620   0.25240   0.83190   Biso      1.000     H          0.128277  
         H38       1.0000    0.38270   0.98530   0.33410   Biso      1.000     H          0.108116  
         H39       1.0000    0.03370   0.55430   0.59930   Biso      1.000     H          0.112975  
         H40       1.0000    0.87540   0.10540   0.85560   Biso      1.000     H          0.161592  
         H41       1.0000    0.13930   0.11770   0.14370   Biso      1.000     H          0.116502  
         H42       1.0000    0.74260   0.98580   0.96240   Biso      1.000     H          0.161786  
         H43       1.0000    0.12460   0.89460   0.14440   Biso      1.000     H          0.161592  
         H44       1.0000    0.01470   0.61730   0.16590   Biso      1.000     H          0.108117  
         H45       1.0000    0.98530   0.38270   0.83410   Biso      1.000     H          0.108117  
         H46       1.0000    0.51790   0.32190   0.22890   Biso      1.000     H          0.118731  
         H47       1.0000    0.11770   0.13930   0.64370   Biso      1.000     H          0.116502  
         H48       1.0000    0.91050   0.19470   0.93140   Biso      1.000     H          0.163623  
         H49       1.0000    0.60380   0.86420   0.58180   Biso      1.000     H          0.116842  
         H50       1.0000    0.20550   0.18150   0.91090   Biso      1.000     H          0.106167  
         H51       1.0000    0.89460   0.12460   0.64440   Biso      1.000     H          0.161592  
         H52       1.0000    0.86420   0.60380   0.08180   Biso      1.000     H          0.116842  
         H53       1.0000    0.86070   0.88230   0.85630   Biso      1.000     H          0.116502  
         H54       1.0000    0.10540   0.87540   0.35560   Biso      1.000     H          0.161592  
         H55       1.0000    0.56130   0.87950   0.02880   Biso      1.000     H          0.108446  
         H56       1.0000    0.81140   0.00580   0.63540   Biso      1.000     H          0.151753  
         H57       1.0000    0.25240   0.34620   0.33190   Biso      1.000     H          0.128277  
         H58       1.0000    0.25740   0.01420   0.03760   Biso      1.000     H          0.161786  
         H59       1.0000    0.00480   0.24260   0.43760   Biso      1.000     H          0.155298  
         H60       1.0000    0.45070   0.36130   0.73950   Biso      1.000     H          0.095635  
         H61       1.0000    0.39620   0.13580   0.41820   Biso      1.000     H          0.116843  
         H62       1.0000    0.55430   0.03370   0.09930   Biso      1.000     H          0.112976  
         H63       1.0000    0.74760   0.65380   0.66810   Biso      1.000     H          0.128277  
         H64       1.0000    0.54930   0.63870   0.26050   Biso      1.000     H          0.095634  
         H65       1.0000    0.25740   0.22840   0.05720   Biso      1.000     H          0.094748  
         H66       1.0000    0.68000   0.14580   0.76490   Biso      1.000     H          0.10839   
         H67       1.0000    0.10000   0.79640   0.51130   Biso      1.000     H          0.16549   
         H68       1.0000    0.05080   0.09140   0.27930   Biso      1.000     H          0.109225  
         H69       1.0000    0.32190   0.51790   0.72890   Biso      1.000     H          0.118731  
         H70       1.0000    0.17030   0.49990   0.64380   Biso      1.000     H          0.113217  
         H71       1.0000    0.88230   0.86070   0.35630   Biso      1.000     H          0.116502  
         H72       1.0000    0.99420   0.18860   0.86460   Biso      1.000     H          0.151753  
         H73       1.0000    0.63870   0.54930   0.76050   Biso      1.000     H          0.095635  
         H74       1.0000    0.87950   0.56130   0.52880   Biso      1.000     H          0.108446  
         H75       1.0000    0.65380   0.74760   0.16810   Biso      1.000     H          0.128278  
         H76       1.0000    0.67810   0.48210   0.27110   Biso      1.000     H          0.118731  
         H77       1.0000    0.09140   0.05080   0.77930   Biso      1.000     H          0.109225  
         H78       1.0000    0.99520   0.75740   0.56240   Biso      1.000     H          0.155298  
         H79       1.0000    0.14580   0.68000   0.26490   Biso      1.000     H          0.108389  
         H80       1.0000    0.08950   0.80530   0.06860   Biso      1.000     H          0.163623  
         N1        1.0000    0.31600   0.35320   0.13920   Biso      1.000     N          -0.205137           
         N2        1.0000    0.68400   0.64680   0.86080   Biso      1.000     N          -0.205136           
         N3        1.0000    0.35320   0.31600   0.63920   Biso      1.000     N          -0.205138           
         N4        1.0000    0.64680   0.68400   0.36080   Biso      1.000     N          -0.205137           
         O1        1.0000    0.31574   0.46926   0.50280   Biso      1.000     O          -0.557238           
         O2        1.0000    0.58715   0.42025   0.58840   Biso      1.000     O          -0.553985           
         O3        1.0000    0.42647   0.32553   0.45872   Biso      1.000     O          -0.562057           
         O4        1.0000    0.52230   0.43310   0.36620   Biso      1.000     O          -0.546683           
         O5        1.0000    0.32553   0.42647   0.95872   Biso      1.000     O          -0.562057           
         O6        1.0000    0.41285   0.57975   0.41160   Biso      1.000     O          -0.553984           
         O7        1.0000    0.46926   0.31574   0.00280   Biso      1.000     O          -0.557238           
         O8        1.0000    0.56690   0.47770   0.13380   Biso      1.000     O          -0.546684           
         O9        1.0000    0.47770   0.56690   0.63380   Biso      1.000     O          -0.546684           
         O10       1.0000    0.53074   0.68426   0.99720   Biso      1.000     O          -0.557237           
         O11       1.0000    0.67447   0.57353   0.04128   Biso      1.000     O          -0.562056           
         O12       1.0000    0.43310   0.52230   0.86620   Biso      1.000     O          -0.546683           
         O13       1.0000    0.57975   0.41285   0.91160   Biso      1.000     O          -0.553984           
         O14       1.0000    0.42025   0.58715   0.08840   Biso      1.000     O          -0.553985           
         O15       1.0000    0.68426   0.53074   0.49720   Biso      1.000     O          -0.557237           
         O16       1.0000    0.57353   0.67447   0.54128   Biso      1.000     O          -0.562056           
         Zn1       1.0000    0.57242   0.56280   0.93922   Biso      1.000     Zn          0.842621  
         Zn2       1.0000    0.42758   0.43720   0.06078   Biso      1.000     Zn          0.842623  
         Zn3       1.0000    0.43720   0.42758   0.56078   Biso      1.000     Zn          0.842624  
         Zn4       1.0000    0.56280   0.57242   0.43922   Biso      1.000     Zn          0.84262 