
##########################################################################
#               Crystallographic Information Format file
#               Produced by PyCifRW module
#
#  This is a CIF file.  CIF has been adopted by the International
#  Union of Crystallography as the standard for data archiving and
#  transmission.
#
#  For information on this file format, follow the CIF links at
#  http://www.iucr.org
##########################################################################

data_image0

_cell_length_a                          10.112
_cell_length_b                          13.7528
_cell_length_c                          15.0434
_cell_angle_alpha                       77.558
_cell_angle_beta                        70.3608
_cell_angle_gamma                       68.4301
_symmetry_space_group_name_H-M          'P 1'
_symmetry_int_tables_number             1
loop_
  _symmetry_equiv_pos_as_xyz
         'x, y, z' 
loop_
  _atom_site_label
  _atom_site_occupancy
  _atom_site_fract_x
  _atom_site_fract_y
  _atom_site_fract_z
  _atom_site_thermal_displace_type
  _atom_site_B_iso_or_equiv
  _atom_site_type_symbol
  _atom_site_charge
         C1        1.0000    0.99666   0.28672   0.44176   Biso      1.000     C          -0.042724           
         C2        1.0000    0.15845   0.53225   0.26425   Biso      1.000     C          0.629105  
         C3        1.0000    0.84155   0.46775   0.73575   Biso      1.000     C          0.629105  
         C4        1.0000    0.18490   0.84416   0.80444   Biso      1.000     C          -0.104109           
         C5        1.0000    0.16650   0.34416   0.30444   Biso      1.000     C          -0.103759           
         C6        1.0000    0.07161   0.61069   0.53629   Biso      1.000     C          -0.093334           
         C7        1.0000    0.09838   0.44704   0.32540   Biso      1.000     C          -0.016142           
         C8        1.0000    0.87082   0.05296   0.17460   Biso      1.000     C          -0.014825           
         C9        1.0000    0.65355   0.30082   0.99448   Biso      1.000     C          0.646199  
         C10       1.0000    0.81510   0.15584   0.19556   Biso      1.000     C          -0.104107           
         C11       1.0000    0.34645   0.69918   0.00552   Biso      1.000     C          0.646199  
         C12       1.0000    0.97766   0.46907   0.40481   Biso      1.000     C          -0.104077           
         C13       1.0000    0.02234   0.53093   0.59519   Biso      1.000     C          -0.104077           
         C14       1.0000    0.44975   0.58692   0.54838   Biso      1.000     C          -0.103579           
         C15       1.0000    0.32529   0.97655   0.19467   Biso      1.000     C          0.603873  
         C16       1.0000    0.04505   0.03225   0.76425   Biso      1.000     C          0.624057  
         C17       1.0000    0.85154   0.03093   0.09519   Biso      1.000     C          -0.101363           
         C18       1.0000    0.50349   0.47655   0.69467   Biso      1.000     C          0.602743  
         C19       1.0000    0.83350   0.65584   0.69556   Biso      1.000     C          -0.103759           
         C20       1.0000    0.05115   0.80082   0.49448   Biso      1.000     C          0.646505  
         C21       1.0000    0.58505   0.91308   0.95162   Biso      1.000     C          -0.099016           
         C22       1.0000    0.92839   0.38931   0.46371   Biso      1.000     C          -0.093333           
         C23       1.0000    0.11563   0.26479   0.36095   Biso      1.000     C          -0.109357           
         C24       1.0000    0.12918   0.94704   0.82540   Biso      1.000     C          -0.014822           
         C25       1.0000    0.95495   0.96775   0.23575   Biso      1.000     C          0.624057  
         C26       1.0000    0.55025   0.41308   0.45162   Biso      1.000     C          -0.103579           
         C27       1.0000    0.27486   0.78672   0.94176   Biso      1.000     C          -0.039621           
         C28       1.0000    0.50120   0.48779   0.59401   Biso      1.000     C          -0.014917           
         C29       1.0000    0.78141   0.11069   0.03629   Biso      1.000     C          -0.095893           
         C30       1.0000    0.14846   0.96907   0.90481   Biso      1.000     C          -0.101364           
         C31       1.0000    0.49880   0.51221   0.40599   Biso      1.000     C          -0.014917           
         C32       1.0000    0.74137   0.23521   0.13905   Biso      1.000     C          -0.110107           
         C33       1.0000    0.90162   0.55296   0.67460   Biso      1.000     C          -0.016142           
         C34       1.0000    0.41700   0.98779   0.09401   Biso      1.000     C          -0.014512           
         C35       1.0000    0.72514   0.21328   0.05824   Biso      1.000     C          -0.039617           
         C36       1.0000    0.88437   0.73521   0.63905   Biso      1.000     C          -0.109359           
         C37       1.0000    0.58300   0.01221   0.90599   Biso      1.000     C          -0.014511           
         C38       1.0000    0.44884   0.59889   0.45423   Biso      1.000     C          -0.106723           
         C39       1.0000    0.55116   0.40111   0.54577   Biso      1.000     C          -0.106723           
         C40       1.0000    0.00334   0.71328   0.55824   Biso      1.000     C          -0.042721           
         C41       1.0000    0.49804   0.09889   0.95423   Biso      1.000     C          -0.110815           
         C42       1.0000    0.25863   0.76479   0.86095   Biso      1.000     C          -0.110104           
         C43       1.0000    0.21859   0.88931   0.96371   Biso      1.000     C          -0.095891           
         C44       1.0000    0.41495   0.08692   0.04838   Biso      1.000     C          -0.099015           
         C45       1.0000    0.50196   0.90111   0.04577   Biso      1.000     C          -0.110816           
         C46       1.0000    0.67471   0.02345   0.80533   Biso      1.000     C          0.603872  
         C47       1.0000    0.49651   0.52345   0.30533   Biso      1.000     C          0.602742  
         C48       1.0000    0.94885   0.19918   0.50552   Biso      1.000     C          0.646506  
         Ca1       1.0000    0.49077   0.52717   0.11977   Biso      1.000     Ca          1.398962  
         Ca2       1.0000    0.21517   0.75000   0.25000   Biso      1.000     Ca          1.427964  
         Ca3       1.0000    0.50923   0.47283   0.88023   Biso      1.000     Ca          1.398963  
         Ca4       1.0000    0.13771   0.97283   0.38023   Biso      1.000     Ca          1.399807  
         Ca5       1.0000    0.86229   0.02717   0.61977   Biso      1.000     Ca          1.399808  
         Ca6       1.0000    0.78483   0.25000   0.75000   Biso      1.000     Ca          1.427964  
         H1        1.0000    0.16130   0.19610   0.34490   Biso      1.000     H          0.108178  
         H2        1.0000    0.58430   0.35410   0.41930   Biso      1.000     H          0.12027   
         H3        1.0000    0.50390   0.83420   0.07600   Biso      1.000     H          0.114256  
         H4        1.0000    0.82750   0.17170   0.24870   Biso      1.000     H          0.119686  
         H5        1.0000    0.41570   0.64590   0.58070   Biso      1.000     H          0.12027   
         H6        1.0000    0.24790   0.32830   0.25130   Biso      1.000     H          0.119252  
         H7        1.0000    0.83870   0.80390   0.65510   Biso      1.000     H          0.108178  
         H8        1.0000    0.22780   0.90490   0.01810   Biso      1.000     H          0.109377  
         H9        1.0000    0.15080   0.59510   0.48190   Biso      1.000     H          0.109717  
         H10       1.0000    0.17250   0.82830   0.75130   Biso      1.000     H          0.119686  
         H11       1.0000    0.41410   0.66580   0.42400   Biso      1.000     H          0.113313  
         H12       1.0000    0.35770   0.14590   0.08070   Biso      1.000     H          0.119365  
         H13       1.0000    0.64230   0.85410   0.91930   Biso      1.000     H          0.119365  
         H14       1.0000    0.07120   0.46170   0.58110   Biso      1.000     H          0.119038  
         H15       1.0000    0.29770   0.69610   0.84490   Biso      1.000     H          0.108144  
         H16       1.0000    0.49610   0.16580   0.92400   Biso      1.000     H          0.114256  
         H17       1.0000    0.70230   0.30390   0.15510   Biso      1.000     H          0.108144  
         H18       1.0000    0.84920   0.40490   0.51810   Biso      1.000     H          0.109717  
         H19       1.0000    0.88600   0.96170   0.08110   Biso      1.000     H          0.118342  
         H20       1.0000    0.77220   0.09510   0.98190   Biso      1.000     H          0.109377  
         H21       1.0000    0.92880   0.53830   0.41890   Biso      1.000     H          0.119038  
         H22       1.0000    0.11400   0.03830   0.91890   Biso      1.000     H          0.118342  
         H23       1.0000    0.75210   0.67170   0.74870   Biso      1.000     H          0.119253  
         H24       1.0000    0.58590   0.33420   0.57600   Biso      1.000     H          0.113313  
         O1        1.0000    0.03750   0.00618   0.69162   Biso      1.000     O          -0.678301           
         O2        1.0000    0.26470   0.50618   0.19162   Biso      1.000     O          -0.679854           
         O3        1.0000    0.10095   0.62232   0.29038   Biso      1.000     O          -0.628767           
         O4        1.0000    0.31046   0.88712   0.23218   Biso      1.000     O          -0.702988           
         O5        1.0000    0.99811   0.10975   0.47563   Biso      1.000     O          -0.699529           
         O6        1.0000    0.66277   0.28573   0.91251   Biso      1.000     O          -0.664746           
         O7        1.0000    0.68954   0.11288   0.76782   Biso      1.000     O          -0.702988           
         O8        1.0000    0.98635   0.12232   0.79038   Biso      1.000     O          -0.626942           
         O9        1.0000    0.00189   0.89025   0.52437   Biso      1.000     O          -0.699529           
         O10       1.0000    0.13899   0.78573   0.41251   Biso      1.000     O          -0.664091           
         O11       1.0000    0.33723   0.71427   0.08749   Biso      1.000     O          -0.664746           
         O12       1.0000    0.58349   0.39025   0.02437   Biso      1.000     O          -0.699607           
         O13       1.0000    0.41651   0.60975   0.97563   Biso      1.000     O          -0.699607           
         O14       1.0000    0.73530   0.49382   0.80838   Biso      1.000     O          -0.679854           
         O15       1.0000    0.96250   0.99382   0.30838   Biso      1.000     O          -0.678301           
         O16       1.0000    0.89905   0.37768   0.70962   Biso      1.000     O          -0.628767           
         O17       1.0000    0.26503   0.05639   0.23975   Biso      1.000     O          -0.613837           
         O18       1.0000    0.56117   0.44361   0.26025   Biso      1.000     O          -0.612955           
         O19       1.0000    0.73497   0.94361   0.76025   Biso      1.000     O          -0.613837           
         O20       1.0000    0.42976   0.61288   0.26782   Biso      1.000     O          -0.701673           
         O21       1.0000    0.43883   0.55639   0.73975   Biso      1.000     O          -0.612955           
         O22       1.0000    0.57024   0.38712   0.73218   Biso      1.000     O          -0.701674           
         O23       1.0000    0.86101   0.21427   0.58749   Biso      1.000     O          -0.664091           
         O24       1.0000    0.01365   0.87768   0.20962   Biso      1.000     O          -0.626942 