
##########################################################################
#               Crystallographic Information Format file
#               Produced by PyCifRW module
#
#  This is a CIF file.  CIF has been adopted by the International
#  Union of Crystallography as the standard for data archiving and
#  transmission.
#
#  For information on this file format, follow the CIF links at
#  http://www.iucr.org
##########################################################################

data_image0

_cell_length_a                          9.9892
_cell_length_b                          10.9251
_cell_length_c                          22.6123
_cell_angle_alpha                       94.87
_cell_angle_beta                        90
_cell_angle_gamma                       90
_symmetry_space_group_name_H-M          'P 1'
_symmetry_int_tables_number             1
loop_
  _symmetry_equiv_pos_as_xyz
         'x, y, z' 
loop_
  _atom_site_label
  _atom_site_occupancy
  _atom_site_fract_x
  _atom_site_fract_y
  _atom_site_fract_z
  _atom_site_thermal_displace_type
  _atom_site_B_iso_or_equiv
  _atom_site_type_symbol
  _atom_site_charge
         C1        1.0000    0.13540   0.95940   0.03950   Biso      1.000     C          -0.085169           
         C2        1.0000    0.12040   0.41440   0.45620   Biso      1.000     C          -0.0974   
         C3        1.0000    0.87960   0.91440   0.95620   Biso      1.000     C          -0.0974   
         C4        1.0000    0.96140   0.58100   0.64360   Biso      1.000     C          -0.12634  
         C5        1.0000    0.99500   0.11880   0.81177   Biso      1.000     C          0.629305  
         C6        1.0000    0.09820   0.60630   0.41340   Biso      1.000     C          -0.09589  
         C7        1.0000    0.39760   0.84690   0.48390   Biso      1.000     C          -0.095281           
         C8        1.0000    0.48930   0.39020   0.89410   Biso      1.000     C          -0.137907           
         C9        1.0000    0.92980   0.64710   0.59550   Biso      1.000     C          -0.031845           
         C10       1.0000    0.04080   0.28300   0.09650   Biso      1.000     C          0.620086  
         C11       1.0000    0.36650   0.37610   0.92179   Biso      1.000     C          -0.055683           
         C12       1.0000    0.25980   0.59550   0.10290   Biso      1.000     C          0.609387  
         C13       1.0000    0.00500   0.61880   0.31177   Biso      1.000     C          0.629304  
         C14       1.0000    0.12040   0.08560   0.04380   Biso      1.000     C          -0.097401           
         C15       1.0000    0.94900   0.45400   0.63871   Biso      1.000     C          -0.043698           
         C16       1.0000    0.76150   0.90190   0.39066   Biso      1.000     C          0.651537  
         C17       1.0000    0.87960   0.58560   0.54380   Biso      1.000     C          -0.0974   
         C18       1.0000    0.03860   0.41900   0.35640   Biso      1.000     C          -0.126341           
         C19       1.0000    0.48060   0.17000   0.48910   Biso      1.000     C          -0.078655           
         C20       1.0000    0.03860   0.08100   0.14360   Biso      1.000     C          -0.12634  
         C21       1.0000    0.23850   0.09810   0.60934   Biso      1.000     C          0.651537  
         C22       1.0000    0.74020   0.40450   0.89710   Biso      1.000     C          0.609387  
         C23       1.0000    0.96140   0.91900   0.85640   Biso      1.000     C          -0.12634  
         C24       1.0000    0.05100   0.95400   0.13871   Biso      1.000     C          -0.043698           
         C25       1.0000    0.51940   0.67000   0.98910   Biso      1.000     C          -0.078655           
         C26       1.0000    0.51940   0.83000   0.51090   Biso      1.000     C          -0.078652           
         C27       1.0000    0.76150   0.59810   0.10934   Biso      1.000     C          0.651537  
         C28       1.0000    0.86460   0.45940   0.53950   Biso      1.000     C          -0.085169           
         C29       1.0000    0.00500   0.88120   0.18823   Biso      1.000     C          0.629305  
         C30       1.0000    0.05100   0.54600   0.36129   Biso      1.000     C          -0.043696           
         C31       1.0000    0.95920   0.78300   0.59650   Biso      1.000     C          0.620086  
         C32       1.0000    0.13540   0.54060   0.46050   Biso      1.000     C          -0.085169           
         C33       1.0000    0.04080   0.21700   0.40350   Biso      1.000     C          0.620086  
         C34       1.0000    0.60240   0.15310   0.51610   Biso      1.000     C          -0.095279           
         C35       1.0000    0.60840   0.12180   0.57442   Biso      1.000     C          -0.023819           
         C36       1.0000    0.63350   0.62390   0.07821   Biso      1.000     C          -0.055683           
         C37       1.0000    0.07020   0.14710   0.09550   Biso      1.000     C          -0.031845           
         C38       1.0000    0.63350   0.87610   0.42179   Biso      1.000     C          -0.055683           
         C39       1.0000    0.95920   0.71700   0.90350   Biso      1.000     C          0.620086  
         C40       1.0000    0.23850   0.40190   0.89066   Biso      1.000     C          0.651537  
         C41       1.0000    0.92980   0.85290   0.90450   Biso      1.000     C          -0.031845           
         C42       1.0000    0.90180   0.39370   0.58660   Biso      1.000     C          -0.095888           
         C43       1.0000    0.60840   0.37820   0.92558   Biso      1.000     C          -0.023818           
         C44       1.0000    0.74020   0.09550   0.60290   Biso      1.000     C          0.609387  
         C45       1.0000    0.63740   0.84620   0.48050   Biso      1.000     C          -0.099356           
         C46       1.0000    0.60240   0.34690   0.98390   Biso      1.000     C          -0.095282           
         C47       1.0000    0.39760   0.65310   0.01610   Biso      1.000     C          -0.095279           
         C48       1.0000    0.36260   0.15380   0.51950   Biso      1.000     C          -0.099356           
         C49       1.0000    0.51070   0.60980   0.10590   Biso      1.000     C          -0.137908           
         C50       1.0000    0.99500   0.38120   0.68823   Biso      1.000     C          0.629305  
         C51       1.0000    0.51070   0.89020   0.39410   Biso      1.000     C          -0.137908           
         C52       1.0000    0.36650   0.12390   0.57821   Biso      1.000     C          -0.055683           
         C53       1.0000    0.25980   0.90450   0.39710   Biso      1.000     C          0.609387  
         C54       1.0000    0.86460   0.04060   0.96050   Biso      1.000     C          -0.085169           
         C55       1.0000    0.48060   0.33000   0.01090   Biso      1.000     C          -0.078652           
         C56       1.0000    0.48930   0.10980   0.60590   Biso      1.000     C          -0.137908           
         C57       1.0000    0.36260   0.34620   0.98050   Biso      1.000     C          -0.099356           
         C58       1.0000    0.39160   0.62180   0.07442   Biso      1.000     C          -0.023819           
         C59       1.0000    0.09820   0.89370   0.08660   Biso      1.000     C          -0.095888           
         C60       1.0000    0.63740   0.65380   0.01950   Biso      1.000     C          -0.099356           
         C61       1.0000    0.39160   0.87820   0.42558   Biso      1.000     C          -0.023819           
         C62       1.0000    0.94900   0.04600   0.86129   Biso      1.000     C          -0.043698           
         C63       1.0000    0.90180   0.10630   0.91340   Biso      1.000     C          -0.095888           
         C64       1.0000    0.07020   0.35290   0.40450   Biso      1.000     C          -0.031845           
         Ca1       1.0000    0.98121   0.44822   0.83872   Biso      1.000     Ca          1.36482   
         Ca2       1.0000    0.98121   0.05178   0.66128   Biso      1.000     Ca          1.36482   
         Ca3       1.0000    0.01879   0.55178   0.16128   Biso      1.000     Ca          1.36482   
         Ca4       1.0000    0.80628   0.75000   0.25000   Biso      1.000     Ca          1.462366  
         Ca5       1.0000    0.19372   0.25000   0.75000   Biso      1.000     Ca          1.462366  
         Ca6       1.0000    0.00000   0.50000   0.00000   Biso      1.000     Ca          1.431664  
         Ca7       1.0000    0.00000   0.00000   0.50000   Biso      1.000     Ca          1.431664  
         Ca8       1.0000    0.01879   0.94822   0.33872   Biso      1.000     Ca          1.36482   
         H1        1.0000    0.85600   0.62960   0.51200   Biso      1.000     H          0.111224  
         H2        1.0000    0.49220   0.40770   0.85460   Biso      1.000     H          0.120955  
         H3        1.0000    0.82960   0.41880   0.50510   Biso      1.000     H          0.110967  
         H4        1.0000    0.99080   0.87810   0.82110   Biso      1.000     H          0.130624  
         H5        1.0000    0.71930   0.66280   0.00080   Biso      1.000     H          0.114011  
         H6        1.0000    0.14400   0.12960   0.01200   Biso      1.000     H          0.111224  
         H7        1.0000    0.17040   0.58120   0.49490   Biso      1.000     H          0.110968  
         H8        1.0000    0.52210   0.69230   0.95030   Biso      1.000     H          0.116453  
         H9        1.0000    0.47790   0.19230   0.45030   Biso      1.000     H          0.116453  
         H10       1.0000    0.68130   0.16280   0.49510   Biso      1.000     H          0.116262  
         H11       1.0000    0.99080   0.62190   0.67890   Biso      1.000     H          0.130624  
         H12       1.0000    0.85600   0.87040   0.98800   Biso      1.000     H          0.111224  
         H13       1.0000    0.31870   0.83720   0.50490   Biso      1.000     H          0.116262  
         H14       1.0000    0.10500   0.80850   0.08320   Biso      1.000     H          0.113134  
         H15       1.0000    0.00920   0.37810   0.32110   Biso      1.000     H          0.130624  
         H16       1.0000    0.52210   0.80770   0.54970   Biso      1.000     H          0.116453  
         H17       1.0000    0.28070   0.16280   0.50080   Biso      1.000     H          0.114011  
         H18       1.0000    0.71930   0.83720   0.49920   Biso      1.000     H          0.114011  
         H19       1.0000    0.50780   0.59230   0.14540   Biso      1.000     H          0.120955  
         H20       1.0000    0.68130   0.33720   0.00490   Biso      1.000     H          0.116262  
         H21       1.0000    0.28070   0.33720   0.99920   Biso      1.000     H          0.114012  
         H22       1.0000    0.47790   0.30770   0.04970   Biso      1.000     H          0.116453  
         H23       1.0000    0.17040   0.91880   0.00510   Biso      1.000     H          0.110967  
         H24       1.0000    0.89500   0.30850   0.58320   Biso      1.000     H          0.113134  
         H25       1.0000    0.31870   0.66280   0.99510   Biso      1.000     H          0.116262  
         H26       1.0000    0.10500   0.69150   0.41680   Biso      1.000     H          0.113134  
         H27       1.0000    0.14400   0.37040   0.48800   Biso      1.000     H          0.111224  
         H28       1.0000    0.50780   0.90770   0.35460   Biso      1.000     H          0.120955  
         H29       1.0000    0.89500   0.19150   0.91680   Biso      1.000     H          0.113134  
         H30       1.0000    0.82960   0.08120   0.99490   Biso      1.000     H          0.110967  
         H31       1.0000    0.49220   0.09230   0.64540   Biso      1.000     H          0.120955  
         H32       1.0000    0.00920   0.12190   0.17890   Biso      1.000     H          0.130624  
         O1        1.0000    0.02200   0.06270   0.76250   Biso      1.000     O          -0.651816           
         O2        1.0000    0.02050   0.15860   0.35360   Biso      1.000     O          -0.64174  
         O3        1.0000    0.00760   0.23290   0.82186   Biso      1.000     O          -0.68545  
         O4        1.0000    0.00760   0.26710   0.67814   Biso      1.000     O          -0.68545  
         O5        1.0000    0.96570   0.82720   0.54770   Biso      1.000     O          -0.65644  
         O6        1.0000    0.76560   0.60380   0.16530   Biso      1.000     O          -0.703698           
         O7        1.0000    0.76560   0.89620   0.33470   Biso      1.000     O          -0.703698           
         O8        1.0000    0.74620   0.41080   0.84267   Biso      1.000     O          -0.596903           
         O9        1.0000    0.97950   0.65860   0.85360   Biso      1.000     O          -0.64174  
         O10       1.0000    0.15780   0.91830   0.43003   Biso      1.000     O          -0.696581           
         O11       1.0000    0.13710   0.06990   0.57862   Biso      1.000     O          -0.652113           
         O12       1.0000    0.97950   0.84140   0.64640   Biso      1.000     O          -0.64174  
         O13       1.0000    0.86290   0.93010   0.42138   Biso      1.000     O          -0.652113           
         O14       1.0000    0.03430   0.17280   0.45230   Biso      1.000     O          -0.65644  
         O15       1.0000    0.97800   0.56270   0.26250   Biso      1.000     O          -0.651816           
         O16       1.0000    0.03430   0.32720   0.04770   Biso      1.000     O          -0.65644  
         O17       1.0000    0.74620   0.08920   0.65733   Biso      1.000     O          -0.596903           
         O18       1.0000    0.23440   0.39620   0.83470   Biso      1.000     O          -0.703699           
         O19       1.0000    0.84220   0.08170   0.56997   Biso      1.000     O          -0.696581           
         O20       1.0000    0.15780   0.58170   0.06997   Biso      1.000     O          -0.696581           
         O21       1.0000    0.84220   0.41830   0.93003   Biso      1.000     O          -0.696581           
         O22       1.0000    0.13710   0.43010   0.92138   Biso      1.000     O          -0.652113           
         O23       1.0000    0.86290   0.56990   0.07862   Biso      1.000     O          -0.652113           
         O24       1.0000    0.97800   0.93730   0.23750   Biso      1.000     O          -0.651816           
         O25       1.0000    0.02050   0.34140   0.14640   Biso      1.000     O          -0.64174  
         O26       1.0000    0.99240   0.73290   0.32186   Biso      1.000     O          -0.68545  
         O27       1.0000    0.02200   0.43730   0.73750   Biso      1.000     O          -0.651816           
         O28       1.0000    0.99240   0.76710   0.17814   Biso      1.000     O          -0.68545  
         O29       1.0000    0.96570   0.67280   0.95230   Biso      1.000     O          -0.65644  
         O30       1.0000    0.25380   0.91080   0.34267   Biso      1.000     O          -0.596903           
         O31       1.0000    0.23440   0.10380   0.66530   Biso      1.000     O          -0.703699           
         O32       1.0000    0.25380   0.58920   0.15733   Biso      1.000     O          -0.596903 