
##########################################################################
#               Crystallographic Information Format file
#               Produced by PyCifRW module
#
#  This is a CIF file.  CIF has been adopted by the International
#  Union of Crystallography as the standard for data archiving and
#  transmission.
#
#  For information on this file format, follow the CIF links at
#  http://www.iucr.org
##########################################################################

data_image0

_cell_length_a                          6.2226
_cell_length_b                          14.702
_cell_length_c                          17.5045
_cell_angle_alpha                       102.233
_cell_angle_beta                        90
_cell_angle_gamma                       102.218
_symmetry_space_group_name_H-M          'P 1'
_symmetry_int_tables_number             1
loop_
  _symmetry_equiv_pos_as_xyz
         'x, y, z' 
loop_
  _atom_site_label
  _atom_site_occupancy
  _atom_site_fract_x
  _atom_site_fract_y
  _atom_site_fract_z
  _atom_site_thermal_displace_type
  _atom_site_B_iso_or_equiv
  _atom_site_type_symbol
  _atom_site_charge
         C1        1.0000    0.57920   0.95060   0.08790   Biso      1.000     C          0.1025    
         C2        1.0000    0.88910   0.74860   0.62740   Biso      1.000     C          -0.101462           
         C3        1.0000    0.67790   0.73460   0.65370   Biso      1.000     C          -0.04166  
         C4        1.0000    0.58790   0.81760   0.69630   Biso      1.000     C          0.560678  
         C5        1.0000    0.62860   0.04940   0.41210   Biso      1.000     C          0.101115  
         C6        1.0000    0.77180   0.05740   0.47500   Biso      1.000     C          -0.178511           
         C7        1.0000    0.92430   0.00000   0.46730   Biso      1.000     C          0.106035  
         C8        1.0000    0.92970   0.94120   0.39300   Biso      1.000     C          -0.174487           
         C9        1.0000    0.78530   0.94180   0.33350   Biso      1.000     C          0.12113   
         C10       1.0000    0.97020   0.67260   0.58520   Biso      1.000     C          -0.154436           
         C11       1.0000    0.58780   0.49880   0.02010   Biso      1.000     C          -0.146848           
         C12       1.0000    0.94240   0.56900   0.09520   Biso      1.000     C          -0.153926           
         C13       1.0000    0.74330   0.58180   0.06740   Biso      1.000     C          0.127482  
         C14       1.0000    0.70240   0.67260   0.08520   Biso      1.000     C          -0.15408  
         C15       1.0000    0.85950   0.74860   0.12740   Biso      1.000     C          -0.104568           
         C16       1.0000    0.05670   0.73460   0.15370   Biso      1.000     C          -0.039049           
         C17       1.0000    0.22970   0.81760   0.19630   Biso      1.000     C          0.560492  
         C18       1.0000    0.71440   0.94260   0.02500   Biso      1.000     C          -0.177449           
         C19       1.0000    0.92430   0.00000   0.03270   Biso      1.000     C          0.105644  
         C20       1.0000    0.09840   0.64320   0.13750   Biso      1.000     C          -0.108307           
         C21       1.0000    0.83850   0.58180   0.56740   Biso      1.000     C          0.126421  
         C22       1.0000    0.62660   0.56900   0.59520   Biso      1.000     C          -0.154665           
         C23       1.0000    0.54480   0.64320   0.63750   Biso      1.000     C          -0.110391           
         C24       1.0000    0.37140   0.95060   0.58790   Biso      1.000     C          0.101115  
         C25       1.0000    0.22820   0.94260   0.52500   Biso      1.000     C          -0.17851  
         C26       1.0000    0.07570   0.00000   0.53270   Biso      1.000     C          0.106034  
         C27       1.0000    0.07030   0.05880   0.60700   Biso      1.000     C          -0.174487           
         C28       1.0000    0.21470   0.05820   0.66650   Biso      1.000     C          0.12113   
         C29       1.0000    0.41220   0.50120   0.97990   Biso      1.000     C          -0.146803           
         C30       1.0000    0.90160   0.35680   0.86250   Biso      1.000     C          -0.108313           
         C31       1.0000    0.05760   0.43100   0.90480   Biso      1.000     C          -0.153921           
         C32       1.0000    0.25670   0.41820   0.93260   Biso      1.000     C          0.127477  
         C33       1.0000    0.29760   0.32740   0.91480   Biso      1.000     C          -0.15408  
         C34       1.0000    0.14050   0.25140   0.87260   Biso      1.000     C          -0.104568           
         C35       1.0000    0.94330   0.26540   0.84630   Biso      1.000     C          -0.039047           
         C36       1.0000    0.77030   0.18240   0.80370   Biso      1.000     C          0.560492  
         C37       1.0000    0.42080   0.04940   0.91210   Biso      1.000     C          0.1025    
         C38       1.0000    0.28560   0.05740   0.97500   Biso      1.000     C          -0.177449           
         C39       1.0000    0.07570   0.00000   0.96730   Biso      1.000     C          0.105643  
         C40       1.0000    0.01150   0.94120   0.89300   Biso      1.000     C          -0.172967           
         C41       1.0000    0.15650   0.94180   0.83350   Biso      1.000     C          0.119878  
         C42       1.0000    0.91100   0.49880   0.52010   Biso      1.000     C          -0.144863           
         C43       1.0000    0.84350   0.05820   0.16650   Biso      1.000     C          0.11988   
         C44       1.0000    0.08900   0.50120   0.47990   Biso      1.000     C          -0.144811           
         C45       1.0000    0.98850   0.05880   0.10700   Biso      1.000     C          -0.172969           
         C46       1.0000    0.37340   0.43100   0.40480   Biso      1.000     C          -0.154667           
         C47       1.0000    0.41210   0.18240   0.30370   Biso      1.000     C          0.560677  
         C48       1.0000    0.32210   0.26540   0.34630   Biso      1.000     C          -0.041664           
         C49       1.0000    0.11090   0.25140   0.37260   Biso      1.000     C          -0.101458           
         C50       1.0000    0.45520   0.35680   0.36250   Biso      1.000     C          -0.11039  
         C51       1.0000    0.16150   0.41820   0.43260   Biso      1.000     C          0.126418  
         C52       1.0000    0.02980   0.32740   0.41480   Biso      1.000     C          -0.154436           
         H1        1.0000    0.88620   0.31700   0.43120   Biso      1.000     H          0.108907  
         H2        1.0000    0.76590   0.10080   0.52170   Biso      1.000     H          0.137047  
         H3        1.0000    0.03070   0.90220   0.38400   Biso      1.000     H          0.136278  
         H4        1.0000    0.79060   0.90160   0.28500   Biso      1.000     H          0.106082  
         H5        1.0000    0.61720   0.43900   0.01890   Biso      1.000     H          0.111243  
         H6        1.0000    0.22990   0.63240   0.15500   Biso      1.000     H          0.117242  
         H7        1.0000    0.97060   0.50800   0.08480   Biso      1.000     H          0.111875  
         H8        1.0000    0.56920   0.68300   0.06880   Biso      1.000     H          0.10886   
         H9        1.0000    0.43430   0.91620   0.07970   Biso      1.000     H          0.091431  
         H10       1.0000    0.66510   0.89920   0.97830   Biso      1.000     H          0.136513  
         H11       1.0000    0.51810   0.08380   0.42030   Biso      1.000     H          0.092337  
         H12       1.0000    0.88900   0.09840   0.21500   Biso      1.000     H          0.106663  
         H13       1.0000    0.17820   0.56100   0.48110   Biso      1.000     H          0.109674  
         H14       1.0000    0.59750   0.36760   0.34500   Biso      1.000     H          0.118461  
         H15       1.0000    0.46260   0.49200   0.41520   Biso      1.000     H          0.113447  
         H16       1.0000    0.02170   0.19060   0.36200   Biso      1.000     H          0.105251  
         H17       1.0000    0.83110   0.80940   0.13800   Biso      1.000     H          0.105258  
         H18       1.0000    0.12850   0.09780   0.11600   Biso      1.000     H          0.134953  
         H19       1.0000    0.97830   0.80940   0.63800   Biso      1.000     H          0.105251  
         H20       1.0000    0.53740   0.50800   0.58480   Biso      1.000     H          0.113447  
         H21       1.0000    0.48190   0.91620   0.57970   Biso      1.000     H          0.092337  
         H22       1.0000    0.23410   0.89920   0.47830   Biso      1.000     H          0.137047  
         H23       1.0000    0.96930   0.09780   0.61600   Biso      1.000     H          0.136277  
         H24       1.0000    0.11380   0.68300   0.56880   Biso      1.000     H          0.108907  
         H25       1.0000    0.38280   0.56100   0.98110   Biso      1.000     H          0.11124   
         H26       1.0000    0.77010   0.36760   0.84500   Biso      1.000     H          0.117243  
         H27       1.0000    0.02940   0.49200   0.91520   Biso      1.000     H          0.111874  
         H28       1.0000    0.20940   0.09840   0.71500   Biso      1.000     H          0.106082  
         H29       1.0000    0.16890   0.19060   0.86200   Biso      1.000     H          0.105258  
         H30       1.0000    0.56570   0.08380   0.92030   Biso      1.000     H          0.091431  
         H31       1.0000    0.33490   0.10080   0.02170   Biso      1.000     H          0.136512  
         H32       1.0000    0.87150   0.90220   0.88400   Biso      1.000     H          0.134952  
         H33       1.0000    0.11100   0.90160   0.78500   Biso      1.000     H          0.106663  
         H34       1.0000    0.82180   0.43900   0.51890   Biso      1.000     H          0.109677  
         H35       1.0000    0.40250   0.63240   0.65500   Biso      1.000     H          0.118461  
         H36       1.0000    0.43080   0.31700   0.93120   Biso      1.000     H          0.10886   
         N1        1.0000    0.63910   0.00260   0.15800   Biso      1.000     N          -0.206181           
         N2        1.0000    0.63650   0.99740   0.34200   Biso      1.000     N          -0.206151           
         N3        1.0000    0.36090   0.99740   0.84200   Biso      1.000     N          -0.206181           
         N4        1.0000    0.36350   0.00260   0.65800   Biso      1.000     N          -0.20615  
         O1        1.0000    0.71817   0.89834   0.70890   Biso      1.000     O          -0.568273           
         O2        1.0000    0.41240   0.80600   0.21320   Biso      1.000     O          -0.573538           
         O3        1.0000    0.39360   0.80600   0.71320   Biso      1.000     O          -0.573071           
         O4        1.0000    0.18017   0.89834   0.20890   Biso      1.000     O          -0.567747           
         O5        1.0000    0.58760   0.19400   0.78680   Biso      1.000     O          -0.573538           
         O6        1.0000    0.28183   0.10166   0.29110   Biso      1.000     O          -0.568273           
         O7        1.0000    0.81983   0.10166   0.79110   Biso      1.000     O          -0.567747           
         O8        1.0000    0.60640   0.19400   0.28680   Biso      1.000     O          -0.573071           
         Zn1       1.0000    0.56352   0.00000   0.75000   Biso      1.000     Zn          0.72969   
         Zn2       1.0000    0.43648   0.00000   0.25000   Biso      1.000     Zn          0.72969 