
##########################################################################
#               Crystallographic Information Format file
#               Produced by PyCifRW module
#
#  This is a CIF file.  CIF has been adopted by the International
#  Union of Crystallography as the standard for data archiving and
#  transmission.
#
#  For information on this file format, follow the CIF links at
#  http://www.iucr.org
##########################################################################

data_image0

_cell_length_a                          10.1459
_cell_length_b                          10.1459
_cell_length_c                          23.8634
_cell_angle_alpha                       90
_cell_angle_beta                        90
_cell_angle_gamma                       90
_symmetry_space_group_name_H-M          'P 1'
_symmetry_int_tables_number             1
loop_
  _symmetry_equiv_pos_as_xyz
         'x, y, z' 
loop_
  _atom_site_label
  _atom_site_occupancy
  _atom_site_fract_x
  _atom_site_fract_y
  _atom_site_fract_z
  _atom_site_thermal_displace_type
  _atom_site_B_iso_or_equiv
  _atom_site_type_symbol
  _atom_site_charge
         C1        1.0000    0.02750   0.79960   0.36150   Biso      1.000     C          -0.14740599999999998          
         C2        1.0000    0.25600   0.64820   0.11920   Biso      1.000     C          -0.110818           
         C3        1.0000    0.16560   0.54410   0.03900   Biso      1.000     C          -0.104682           
         C4        1.0000    0.57120   0.84550   0.36421   Biso      1.000     C          0.177739  
         C5        1.0000    0.42880   0.15450   0.36421   Biso      1.000     C          0.177739  
         C6        1.0000    0.22200   0.91470   0.60798   Biso      1.000     C          0.061966999999999994          
         C7        1.0000    0.62170   0.74940   0.18001   Biso      1.000     C          -0.130483           
         C8        1.0000    0.81440   0.34240   0.06974   Biso      1.000     C          -0.014206           
         C9        1.0000    0.66560   0.95590   0.53900   Biso      1.000     C          -0.104682           
         C10       1.0000    0.64820   0.74400   0.88080   Biso      1.000     C          -0.11081700000000001          
         C11       1.0000    0.57600   0.21470   0.94210   Biso      1.000     C          -0.13106600000000002          
         C12       1.0000    0.52750   0.70040   0.86150   Biso      1.000     C          -0.147405           
         C13       1.0000    0.08530   0.22200   0.39202   Biso      1.000     C          0.061966  
         C14       1.0000    0.54410   0.83440   0.96100   Biso      1.000     C          -0.10468  
         C15       1.0000    0.21520   0.12670   0.94916   Biso      1.000     C          0.56655   
         C16       1.0000    0.42400   0.78530   0.94210   Biso      1.000     C          -0.13106600000000002          
         C17       1.0000    0.65450   0.92880   0.13579   Biso      1.000     C          0.177739  
         C18       1.0000    0.15450   0.57120   0.63579   Biso      1.000     C          0.177739  
         C19       1.0000    0.32020   0.28590   0.12991   Biso      1.000     C          0.130486  
         C20       1.0000    0.34550   0.07120   0.13579   Biso      1.000     C          0.177739  
         C21       1.0000    0.31440   0.15760   0.56974   Biso      1.000     C          -0.014206           
         C22       1.0000    0.12670   0.78480   0.05084   Biso      1.000     C          0.56655   
         C23       1.0000    0.84240   0.31440   0.43026   Biso      1.000     C          -0.014206           
         C24       1.0000    0.24940   0.12170   0.31999   Biso      1.000     C          -0.130483           
         C25       1.0000    0.70040   0.47250   0.13850   Biso      1.000     C          -0.14740599999999998          
         C26       1.0000    0.25060   0.62170   0.81999   Biso      1.000     C          -0.130484           
         C27       1.0000    0.85180   0.24400   0.38080   Biso      1.000     C          -0.110818           
         C28       1.0000    0.91470   0.77800   0.39202   Biso      1.000     C          0.061966999999999994          
         C29       1.0000    0.77800   0.08530   0.60798   Biso      1.000     C          0.061966  
         C30       1.0000    0.28590   0.67980   0.87009   Biso      1.000     C          0.13048900000000002           
         C31       1.0000    0.79960   0.97250   0.63850   Biso      1.000     C          -0.147405           
         C32       1.0000    0.92880   0.34550   0.86421   Biso      1.000     C          0.177739  
         C33       1.0000    0.04410   0.66560   0.46100   Biso      1.000     C          -0.104682           
         C34       1.0000    0.87830   0.24940   0.68001   Biso      1.000     C          -0.130484           
         C35       1.0000    0.20040   0.02750   0.63850   Biso      1.000     C          -0.147405           
         C36       1.0000    0.78480   0.87330   0.94916   Biso      1.000     C          0.566549  
         C37       1.0000    0.34240   0.18560   0.93026   Biso      1.000     C          -0.014206           
         C38       1.0000    0.24400   0.14820   0.61920   Biso      1.000     C          -0.11081600000000001          
         C39       1.0000    0.71470   0.07600   0.55790   Biso      1.000     C          -0.131054           
         C40       1.0000    0.75060   0.87830   0.31999   Biso      1.000     C          -0.130484           
         C41       1.0000    0.47250   0.29960   0.86150   Biso      1.000     C          -0.14740799999999998          
         C42       1.0000    0.92400   0.71470   0.44210   Biso      1.000     C          -0.131055           
         C43       1.0000    0.71410   0.32020   0.87009   Biso      1.000     C          0.130485  
         C44       1.0000    0.15760   0.68560   0.43026   Biso      1.000     C          -0.014203           
         C45       1.0000    0.68560   0.84240   0.56974   Biso      1.000     C          -0.014203           
         C46       1.0000    0.97250   0.20040   0.36150   Biso      1.000     C          -0.147404           
         C47       1.0000    0.33440   0.04410   0.53900   Biso      1.000     C          -0.104679           
         C48       1.0000    0.65760   0.81440   0.93026   Biso      1.000     C          -0.014204           
         C49       1.0000    0.27800   0.41470   0.10798   Biso      1.000     C          0.061966  
         C50       1.0000    0.72200   0.58530   0.10798   Biso      1.000     C          0.061966999999999994          
         C51       1.0000    0.74400   0.35180   0.11920   Biso      1.000     C          -0.11081600000000001          
         C52       1.0000    0.07600   0.28530   0.44210   Biso      1.000     C          -0.131055           
         C53       1.0000    0.84550   0.42880   0.63579   Biso      1.000     C          0.177739  
         C54       1.0000    0.78530   0.57600   0.05790   Biso      1.000     C          -0.131055           
         C55       1.0000    0.18560   0.65760   0.06974   Biso      1.000     C          -0.014204           
         C56       1.0000    0.37330   0.28480   0.55084   Biso      1.000     C          0.56655   
         C57       1.0000    0.87330   0.21520   0.05084   Biso      1.000     C          0.56655   
         C58       1.0000    0.37830   0.25060   0.18001   Biso      1.000     C          -0.13047999999999998          
         C59       1.0000    0.71520   0.37330   0.44916   Biso      1.000     C          0.56655   
         C60       1.0000    0.95590   0.33440   0.46100   Biso      1.000     C          -0.104679           
         C61       1.0000    0.21410   0.17980   0.37009   Biso      1.000     C          0.13048900000000002           
         C62       1.0000    0.17980   0.78590   0.62991   Biso      1.000     C          0.130485  
         C63       1.0000    0.28480   0.62670   0.44916   Biso      1.000     C          0.566549  
         C64       1.0000    0.82020   0.21410   0.62991   Biso      1.000     C          0.13048900000000002           
         C65       1.0000    0.75600   0.85180   0.61920   Biso      1.000     C          -0.11081700000000001          
         C66       1.0000    0.14820   0.75600   0.38080   Biso      1.000     C          -0.11081600000000001          
         C67       1.0000    0.21470   0.42400   0.05790   Biso      1.000     C          -0.131055           
         C68       1.0000    0.62670   0.71520   0.55084   Biso      1.000     C          0.566549  
         C69       1.0000    0.41470   0.72200   0.89202   Biso      1.000     C          0.061977  
         C70       1.0000    0.74940   0.37830   0.81999   Biso      1.000     C          -0.13047899999999998          
         C71       1.0000    0.58530   0.27800   0.89202   Biso      1.000     C          0.061978  
         C72       1.0000    0.83440   0.45590   0.03900   Biso      1.000     C          -0.104679           
         C73       1.0000    0.28530   0.92400   0.55790   Biso      1.000     C          -0.131055           
         C74       1.0000    0.29960   0.52750   0.13850   Biso      1.000     C          -0.147404           
         C75       1.0000    0.78590   0.82020   0.37009   Biso      1.000     C          0.13048900000000002           
         C76       1.0000    0.12170   0.75060   0.68001   Biso      1.000     C          -0.13047999999999998          
         C77       1.0000    0.07120   0.65450   0.86421   Biso      1.000     C          0.177739  
         C78       1.0000    0.45590   0.16560   0.96100   Biso      1.000     C          -0.10467699999999999          
         C79       1.0000    0.67980   0.71410   0.12991   Biso      1.000     C          0.13048900000000002           
         C80       1.0000    0.35180   0.25600   0.88080   Biso      1.000     C          -0.11081600000000001          
         Cd1       1.0000    0.50000   0.50000   0.50000   Biso      1.000     Cd          0.9987520000000001  
         Cd2       1.0000    0.50000   0.00000   0.25000   Biso      1.000     Cd          0.810948  
         Cd3       1.0000    0.00000   0.50000   0.75000   Biso      1.000     Cd          0.810948  
         Cd4       1.0000    0.00000   0.00000   0.00000   Biso      1.000     Cd          0.9987520000000001  
         H1        1.0000    0.70410   0.15110   0.53600   Biso      1.000     H          0.114882  
         H2        1.0000    0.26310   0.15810   0.07100   Biso      1.000     H          0.310678  
         H3        1.0000    0.15660   0.48240   0.62630   Biso      1.000     H          0.094295  
         H4        1.0000    0.22400   0.77420   0.36030   Biso      1.000     H          0.10347999999999999           
         H5        1.0000    0.59670   0.69070   0.20800   Biso      1.000     H          0.124463  
         H6        1.0000    0.11910   0.54790   0.00540   Biso      1.000     H          0.108493  
         H7        1.0000    0.34190   0.23690   0.42900   Biso      1.000     H          0.310678  
         H8        1.0000    0.84890   0.70410   0.46400   Biso      1.000     H          0.114882  
         H9        1.0000    0.77420   0.77600   0.63970   Biso      1.000     H          0.10347999999999999           
         H10       1.0000    0.15600   0.02240   0.67250   Biso      1.000     H          0.11061300000000002           
         H11       1.0000    0.80930   0.90330   0.29200   Biso      1.000     H          0.124463  
         H12       1.0000    0.09670   0.80930   0.70800   Biso      1.000     H          0.12446199999999999           
         H13       1.0000    0.15810   0.73690   0.92900   Biso      1.000     H          0.310678  
         H14       1.0000    0.61910   0.95210   0.50540   Biso      1.000     H          0.108493  
         H15       1.0000    0.34340   0.98240   0.12630   Biso      1.000     H          0.094295  
         H16       1.0000    0.97760   0.15600   0.32750   Biso      1.000     H          0.11061300000000002           
         H17       1.0000    0.22580   0.22400   0.63970   Biso      1.000     H          0.10347999999999999           
         H18       1.0000    0.15110   0.29590   0.46400   Biso      1.000     H          0.114882  
         H19       1.0000    0.52240   0.65600   0.82750   Biso      1.000     H          0.11061300000000002           
         H20       1.0000    0.23690   0.65810   0.57100   Biso      1.000     H          0.310678  
         H21       1.0000    0.19070   0.09670   0.29200   Biso      1.000     H          0.124463  
         H22       1.0000    0.30930   0.59670   0.79200   Biso      1.000     H          0.124463  
         H23       1.0000    0.38090   0.04790   0.50540   Biso      1.000     H          0.108493  
         H24       1.0000    0.34400   0.52240   0.17250   Biso      1.000     H          0.11061300000000002           
         H25       1.0000    0.65110   0.20410   0.96400   Biso      1.000     H          0.114883  
         H26       1.0000    0.65600   0.47760   0.17250   Biso      1.000     H          0.110614  
         H27       1.0000    0.04790   0.61910   0.49460   Biso      1.000     H          0.108493  
         H28       1.0000    0.02240   0.84400   0.32750   Biso      1.000     H          0.110614  
         H29       1.0000    0.20410   0.34890   0.03600   Biso      1.000     H          0.114882  
         H30       1.0000    0.90330   0.19070   0.70800   Biso      1.000     H          0.124463  
         H31       1.0000    0.84190   0.26310   0.92900   Biso      1.000     H          0.310678  
         H32       1.0000    0.84400   0.97760   0.67250   Biso      1.000     H          0.110614  
         H33       1.0000    0.40330   0.30930   0.20800   Biso      1.000     H          0.124463  
         H34       1.0000    0.69070   0.40330   0.79200   Biso      1.000     H          0.124463  
         H35       1.0000    0.65660   0.01760   0.12630   Biso      1.000     H          0.094295  
         H36       1.0000    0.88090   0.45210   0.00540   Biso      1.000     H          0.108493  
         H37       1.0000    0.27600   0.27420   0.86030   Biso      1.000     H          0.10347999999999999           
         H38       1.0000    0.51760   0.15660   0.37370   Biso      1.000     H          0.094295  
         H39       1.0000    0.54790   0.88090   0.99460   Biso      1.000     H          0.108493  
         H40       1.0000    0.76310   0.34190   0.57100   Biso      1.000     H          0.310678  
         H41       1.0000    0.45210   0.11910   0.99460   Biso      1.000     H          0.108492  
         H42       1.0000    0.27420   0.72400   0.13970   Biso      1.000     H          0.10347999999999999           
         H43       1.0000    0.72400   0.72580   0.86030   Biso      1.000     H          0.10347999999999999           
         H44       1.0000    0.48240   0.84340   0.37370   Biso      1.000     H          0.094295  
         H45       1.0000    0.01760   0.34340   0.87370   Biso      1.000     H          0.094295  
         H46       1.0000    0.77600   0.22580   0.36030   Biso      1.000     H          0.10347999999999999           
         H47       1.0000    0.34890   0.79590   0.96400   Biso      1.000     H          0.114883  
         H48       1.0000    0.73690   0.84190   0.07100   Biso      1.000     H          0.310678  
         H49       1.0000    0.72580   0.27600   0.13970   Biso      1.000     H          0.10347999999999999           
         H50       1.0000    0.65810   0.76310   0.42900   Biso      1.000     H          0.310678  
         H51       1.0000    0.47760   0.34400   0.82750   Biso      1.000     H          0.110614  
         H52       1.0000    0.29590   0.84890   0.53600   Biso      1.000     H          0.114882  
         H53       1.0000    0.79590   0.65110   0.03600   Biso      1.000     H          0.114882  
         H54       1.0000    0.84340   0.51760   0.62630   Biso      1.000     H          0.094295  
         H55       1.0000    0.95210   0.38090   0.49460   Biso      1.000     H          0.108493  
         H56       1.0000    0.98240   0.65660   0.87370   Biso      1.000     H          0.094295  
         N1        1.0000    0.33200   0.20050   0.39676   Biso      1.000     N          -0.241162           
         N2        1.0000    0.89370   0.38310   0.68263   Biso      1.000     N          -0.305327           
         N3        1.0000    0.20050   0.66800   0.60324   Biso      1.000     N          -0.241162           
         N4        1.0000    0.16800   0.70050   0.89676   Biso      1.000     N          -0.241162           
         N5        1.0000    0.66800   0.79950   0.39676   Biso      1.000     N          -0.241162           
         N6        1.0000    0.70050   0.83200   0.10324   Biso      1.000     N          -0.241162           
         N7        1.0000    0.38310   0.10630   0.31737   Biso      1.000     N          -0.305327           
         N8        1.0000    0.83200   0.29950   0.89676   Biso      1.000     N          -0.241162           
         N9        1.0000    0.29950   0.16800   0.10324   Biso      1.000     N          -0.241162           
         N10       1.0000    0.79950   0.33200   0.60324   Biso      1.000     N          -0.241162           
         N11       1.0000    0.39370   0.11690   0.18263   Biso      1.000     N          -0.30532800000000004          
         N12       1.0000    0.10630   0.61690   0.68263   Biso      1.000     N          -0.30532800000000004          
         N13       1.0000    0.88310   0.39370   0.81737   Biso      1.000     N          -0.30532800000000004          
         N14       1.0000    0.11690   0.60630   0.81737   Biso      1.000     N          -0.305327           
         N15       1.0000    0.60630   0.88310   0.18263   Biso      1.000     N          -0.305327           
         N16       1.0000    0.61690   0.89370   0.31737   Biso      1.000     N          -0.305327           
         O1        1.0000    0.90080   0.20240   0.99980   Biso      1.000     O          -0.5937720000000001           
         O2        1.0000    0.59920   0.70240   0.49980   Biso      1.000     O          -0.5937720000000001           
         O3        1.0000    0.39620   0.37440   0.58512   Biso      1.000     O          -0.577168           
         O4        1.0000    0.89620   0.12560   0.08512   Biso      1.000     O          -0.577168           
         O5        1.0000    0.29760   0.59920   0.50020   Biso      1.000     O          -0.5937720000000001           
         O6        1.0000    0.70240   0.40080   0.50020   Biso      1.000     O          -0.5937720000000001           
         O7        1.0000    0.60380   0.62560   0.58512   Biso      1.000     O          -0.577168           
         O8        1.0000    0.87440   0.89620   0.91488   Biso      1.000     O          -0.577168           
         O9        1.0000    0.37440   0.60380   0.41488   Biso      1.000     O          -0.577168           
         O10       1.0000    0.12560   0.10380   0.91488   Biso      1.000     O          -0.577168           
         O11       1.0000    0.20240   0.09920   0.00020   Biso      1.000     O          -0.5937720000000001           
         O12       1.0000    0.09920   0.79760   0.99980   Biso      1.000     O          -0.5937720000000001           
         O13       1.0000    0.10380   0.87440   0.08512   Biso      1.000     O          -0.577168           
         O14       1.0000    0.40080   0.29760   0.49980   Biso      1.000     O          -0.5937720000000001           
         O15       1.0000    0.79760   0.90080   0.00020   Biso      1.000     O          -0.5937720000000001           
         O16       1.0000    0.62560   0.39620   0.41488   Biso      1.000     O          -0.577168 