
##########################################################################
#               Crystallographic Information Format file
#               Produced by PyCifRW module
#
#  This is a CIF file.  CIF has been adopted by the International
#  Union of Crystallography as the standard for data archiving and
#  transmission.
#
#  For information on this file format, follow the CIF links at
#  http://www.iucr.org
##########################################################################

data_image0

_cell_length_a                          16.1322
_cell_length_b                          15.7981
_cell_length_c                          11.6042
_cell_angle_alpha                       90
_cell_angle_beta                        90
_cell_angle_gamma                       90
_symmetry_space_group_name_H-M          'P 1'
_symmetry_int_tables_number             1
loop_
  _symmetry_equiv_pos_as_xyz
         'x, y, z' 
loop_
  _atom_site_label
  _atom_site_occupancy
  _atom_site_fract_x
  _atom_site_fract_y
  _atom_site_fract_z
  _atom_site_thermal_displace_type
  _atom_site_B_iso_or_equiv
  _atom_site_type_symbol
  _atom_site_charge
         C1        1.0000    0.64334   0.40130   0.94850   Biso      1.000     C          0.559383  
         C2        1.0000    0.57298   0.14850   0.49940   Biso      1.000     C          -0.037963           
         C3        1.0000    0.58730   0.22460   0.44300   Biso      1.000     C          -0.11677  
         C4        1.0000    0.74300   0.33440   0.66230   Biso      1.000     C          0.15141   
         C5        1.0000    0.52162   0.27330   0.40230   Biso      1.000     C          -0.147307           
         C6        1.0000    0.87134   0.37386   0.68090   Biso      1.000     C          -0.101203           
         C7        1.0000    0.87027   0.29786   0.62180   Biso      1.000     C          0.114828  
         C8        1.0000    0.43967   0.24632   0.41880   Biso      1.000     C          0.050338  
         C9        1.0000    0.64334   0.09870   0.55150   Biso      1.000     C          0.559384  
         C10       1.0000    0.99124   0.12030   0.48640   Biso      1.000     C          -0.088108           
         C11       1.0000    0.92540   0.16950   0.52630   Biso      1.000     C          -0.13919  
         C12       1.0000    0.93967   0.24632   0.58120   Biso      1.000     C          0.050337  
         C13       1.0000    0.49124   0.12030   0.51360   Biso      1.000     C          -0.088108           
         C14       1.0000    0.02162   0.27330   0.59770   Biso      1.000     C          -0.147308           
         C15       1.0000    0.37027   0.29786   0.37820   Biso      1.000     C          0.114828  
         C16       1.0000    0.08730   0.22460   0.55700   Biso      1.000     C          -0.116771           
         C17       1.0000    0.07298   0.14850   0.50060   Biso      1.000     C          -0.037962           
         C18       1.0000    0.42540   0.16950   0.47370   Biso      1.000     C          -0.139191           
         C19       1.0000    0.25700   0.66560   0.33770   Biso      1.000     C          0.15141   
         C20       1.0000    0.12866   0.62614   0.31910   Biso      1.000     C          -0.101203           
         C21       1.0000    0.12973   0.70214   0.37820   Biso      1.000     C          0.114828  
         C22       1.0000    0.85666   0.90130   0.55150   Biso      1.000     C          0.559383  
         C23       1.0000    0.92702   0.85150   0.49940   Biso      1.000     C          -0.037962           
         C24       1.0000    0.75700   0.66560   0.66230   Biso      1.000     C          0.15141   
         C25       1.0000    0.91270   0.77540   0.44300   Biso      1.000     C          -0.11677  
         C26       1.0000    0.62866   0.62614   0.68090   Biso      1.000     C          -0.101203           
         C27       1.0000    0.62973   0.70214   0.62180   Biso      1.000     C          0.114828  
         C28       1.0000    0.97838   0.72670   0.40230   Biso      1.000     C          -0.147307           
         C29       1.0000    0.50876   0.87970   0.48640   Biso      1.000     C          -0.088108           
         C30       1.0000    0.06033   0.75368   0.41880   Biso      1.000     C          0.050337  
         C31       1.0000    0.57460   0.83050   0.52630   Biso      1.000     C          -0.139191           
         C32       1.0000    0.56033   0.75368   0.58120   Biso      1.000     C          0.050337  
         C33       1.0000    0.07460   0.83050   0.47370   Biso      1.000     C          -0.13919  
         C34       1.0000    0.47838   0.72670   0.59770   Biso      1.000     C          -0.147308           
         C35       1.0000    0.00876   0.87970   0.51360   Biso      1.000     C          -0.088109           
         C36       1.0000    0.41270   0.77540   0.55700   Biso      1.000     C          -0.116771           
         C37       1.0000    0.42702   0.85150   0.50060   Biso      1.000     C          -0.037962           
         C38       1.0000    0.35666   0.90130   0.44850   Biso      1.000     C          0.559384  
         C39       1.0000    0.14334   0.09870   0.44850   Biso      1.000     C          0.559384  
         C40       1.0000    0.37134   0.37386   0.31910   Biso      1.000     C          -0.101203           
         C41       1.0000    0.24300   0.33440   0.33770   Biso      1.000     C          0.15141   
         C42       1.0000    0.35666   0.59870   0.05150   Biso      1.000     C          0.559383  
         C43       1.0000    0.02162   0.22670   0.90230   Biso      1.000     C          -0.147307           
         C44       1.0000    0.93967   0.25368   0.91880   Biso      1.000     C          0.050337  
         C45       1.0000    0.24300   0.16560   0.16230   Biso      1.000     C          0.151411  
         C46       1.0000    0.92540   0.33050   0.97370   Biso      1.000     C          -0.13919  
         C47       1.0000    0.37134   0.12614   0.18090   Biso      1.000     C          -0.101203           
         C48       1.0000    0.37027   0.20214   0.12180   Biso      1.000     C          0.114828  
         C49       1.0000    0.99124   0.37970   0.01360   Biso      1.000     C          -0.088109           
         C50       1.0000    0.08730   0.27540   0.94300   Biso      1.000     C          -0.116771           
         C51       1.0000    0.49124   0.37970   0.98640   Biso      1.000     C          -0.088108           
         C52       1.0000    0.42540   0.33050   0.02630   Biso      1.000     C          -0.13919  
         C53       1.0000    0.43967   0.25368   0.08120   Biso      1.000     C          0.050337  
         C54       1.0000    0.87134   0.12614   0.81910   Biso      1.000     C          -0.101203           
         C55       1.0000    0.52162   0.22670   0.09770   Biso      1.000     C          -0.147308           
         C56       1.0000    0.74300   0.16560   0.83770   Biso      1.000     C          0.15141   
         C57       1.0000    0.58730   0.27540   0.05700   Biso      1.000     C          -0.116771           
         C58       1.0000    0.57298   0.35150   0.00060   Biso      1.000     C          -0.037962           
         C59       1.0000    0.87027   0.20214   0.87820   Biso      1.000     C          0.114828  
         C60       1.0000    0.07298   0.35150   0.99940   Biso      1.000     C          -0.037962           
         C61       1.0000    0.14334   0.40130   0.05150   Biso      1.000     C          0.559384  
         C62       1.0000    0.00876   0.62030   0.98640   Biso      1.000     C          -0.088108           
         C63       1.0000    0.47838   0.77330   0.90230   Biso      1.000     C          -0.147307           
         C64       1.0000    0.25700   0.83440   0.16230   Biso      1.000     C          0.15141   
         C65       1.0000    0.56033   0.74632   0.91880   Biso      1.000     C          0.050337  
         C66       1.0000    0.12866   0.87386   0.18090   Biso      1.000     C          -0.101203           
         C67       1.0000    0.12973   0.79786   0.12180   Biso      1.000     C          0.114828  
         C68       1.0000    0.57460   0.66950   0.97370   Biso      1.000     C          -0.13919  
         C69       1.0000    0.75700   0.83440   0.83770   Biso      1.000     C          0.15141   
         C70       1.0000    0.41270   0.72460   0.94300   Biso      1.000     C          -0.116771           
         C71       1.0000    0.50876   0.62030   0.01360   Biso      1.000     C          -0.088109           
         C72       1.0000    0.06033   0.74632   0.08120   Biso      1.000     C          0.050338  
         C73       1.0000    0.62973   0.79786   0.87820   Biso      1.000     C          0.114828  
         C74       1.0000    0.97838   0.77330   0.09770   Biso      1.000     C          -0.147308           
         C75       1.0000    0.62866   0.87386   0.81910   Biso      1.000     C          -0.101203           
         C76       1.0000    0.91270   0.72460   0.05700   Biso      1.000     C          -0.116771           
         C77       1.0000    0.92702   0.64850   0.00060   Biso      1.000     C          -0.037962           
         C78       1.0000    0.85666   0.59870   0.94850   Biso      1.000     C          0.559384  
         C79       1.0000    0.07460   0.66950   0.02630   Biso      1.000     C          -0.139191           
         C80       1.0000    0.42702   0.64850   0.99940   Biso      1.000     C          -0.037961           
         Cd1       1.0000    0.75000   0.00000   0.67472   Biso      1.000     Cd          0.8385040000000001  
         Cd2       1.0000    0.75000   0.50000   0.82528   Biso      1.000     Cd          0.8385040000000001  
         Cd3       1.0000    0.25000   0.00000   0.32528   Biso      1.000     Cd          0.8385040000000001  
         Cd4       1.0000    0.25000   0.50000   0.17472   Biso      1.000     Cd          0.8385040000000001  
         H1        1.0000    0.14140   0.24330   0.56760   Biso      1.000     H          0.114238  
         H2        1.0000    0.41850   0.09620   0.20250   Biso      1.000     H          0.137496  
         H3        1.0000    0.68570   0.16800   0.83020   Biso      1.000     H          0.098386  
         H4        1.0000    0.18570   0.33200   0.33020   Biso      1.000     H          0.098386  
         H5        1.0000    0.26960   0.23160   0.42360   Biso      1.000     H          0.306288  
         H6        1.0000    0.64140   0.25670   0.06760   Biso      1.000     H          0.114238  
         H7        1.0000    0.91850   0.09620   0.79750   Biso      1.000     H          0.137496  
         H8        1.0000    0.23040   0.73160   0.07640   Biso      1.000     H          0.306288  
         H9        1.0000    0.35860   0.74330   0.93240   Biso      1.000     H          0.114238  
         H10       1.0000    0.31430   0.83200   0.16980   Biso      1.000     H          0.098386  
         H11       1.0000    0.46790   0.82390   0.86390   Biso      1.000     H          0.119074  
         H12       1.0000    0.08150   0.90380   0.20250   Biso      1.000     H          0.137496  
         H13       1.0000    0.01910   0.56870   0.95050   Biso      1.000     H          0.12065899999999999           
         H14       1.0000    0.62870   0.65060   0.98410   Biso      1.000     H          0.124824  
         H15       1.0000    0.12870   0.65060   0.01590   Biso      1.000     H          0.124824  
         H16       1.0000    0.51910   0.56870   0.04950   Biso      1.000     H          0.12065899999999999           
         H17       1.0000    0.96790   0.82390   0.13610   Biso      1.000     H          0.119073  
         H18       1.0000    0.85860   0.74330   0.06760   Biso      1.000     H          0.114238  
         H19       1.0000    0.58150   0.90380   0.79750   Biso      1.000     H          0.137496  
         H20       1.0000    0.53210   0.17610   0.13610   Biso      1.000     H          0.119074  
         H21       1.0000    0.81430   0.83200   0.83020   Biso      1.000     H          0.098386  
         H22       1.0000    0.73040   0.73160   0.92360   Biso      1.000     H          0.306288  
         H23       1.0000    0.37130   0.34940   0.01590   Biso      1.000     H          0.124824  
         H24       1.0000    0.98090   0.43130   0.04950   Biso      1.000     H          0.12065899999999999           
         H25       1.0000    0.48090   0.43130   0.95050   Biso      1.000     H          0.12065899999999999           
         H26       1.0000    0.26960   0.26840   0.07640   Biso      1.000     H          0.306288  
         H27       1.0000    0.14140   0.25670   0.93240   Biso      1.000     H          0.114238  
         H28       1.0000    0.03210   0.17610   0.86390   Biso      1.000     H          0.119073  
         H29       1.0000    0.18570   0.16800   0.16980   Biso      1.000     H          0.098386  
         H30       1.0000    0.48090   0.06870   0.54950   Biso      1.000     H          0.12065899999999999           
         H31       1.0000    0.03210   0.32390   0.63610   Biso      1.000     H          0.119074  
         H32       1.0000    0.41850   0.40380   0.29750   Biso      1.000     H          0.137496  
         H33       1.0000    0.87130   0.15060   0.51590   Biso      1.000     H          0.124824  
         H34       1.0000    0.73040   0.76840   0.57640   Biso      1.000     H          0.306288  
         H35       1.0000    0.81430   0.66800   0.66980   Biso      1.000     H          0.098386  
         H36       1.0000    0.58150   0.59620   0.70250   Biso      1.000     H          0.137496  
         H37       1.0000    0.85860   0.75670   0.43240   Biso      1.000     H          0.114238  
         H38       1.0000    0.51910   0.93130   0.45050   Biso      1.000     H          0.12065899999999999           
         H39       1.0000    0.96790   0.67610   0.36390   Biso      1.000     H          0.119074  
         H40       1.0000    0.62870   0.84940   0.51590   Biso      1.000     H          0.124824  
         H41       1.0000    0.46790   0.67610   0.63610   Biso      1.000     H          0.119073  
         H42       1.0000    0.12870   0.84940   0.48410   Biso      1.000     H          0.124824  
         H43       1.0000    0.35860   0.75670   0.56760   Biso      1.000     H          0.114238  
         H44       1.0000    0.01910   0.93130   0.54950   Biso      1.000     H          0.12065899999999999           
         H45       1.0000    0.37130   0.15060   0.48410   Biso      1.000     H          0.124824  
         H46       1.0000    0.76960   0.23160   0.57640   Biso      1.000     H          0.306288  
         H47       1.0000    0.31430   0.66800   0.33020   Biso      1.000     H          0.098386  
         H48       1.0000    0.08150   0.59620   0.29750   Biso      1.000     H          0.137496  
         H49       1.0000    0.87130   0.34940   0.98410   Biso      1.000     H          0.124824  
         H50       1.0000    0.98090   0.06870   0.45050   Biso      1.000     H          0.12065899999999999           
         H51       1.0000    0.76960   0.26840   0.92360   Biso      1.000     H          0.306288  
         H52       1.0000    0.53210   0.32390   0.36390   Biso      1.000     H          0.119073  
         H53       1.0000    0.91850   0.40380   0.70250   Biso      1.000     H          0.137496  
         H54       1.0000    0.64140   0.24330   0.43240   Biso      1.000     H          0.114238  
         H55       1.0000    0.68570   0.33200   0.66980   Biso      1.000     H          0.098386  
         H56       1.0000    0.23040   0.76840   0.42360   Biso      1.000     H          0.306288  
         N1        1.0000    0.71176   0.72415   0.61080   Biso      1.000     N          -0.258236           
         N2        1.0000    0.29016   0.10222   0.20250   Biso      1.000     N          -0.292997           
         N3        1.0000    0.70984   0.60222   0.70250   Biso      1.000     N          -0.292997           
         N4        1.0000    0.28824   0.22415   0.11080   Biso      1.000     N          -0.258236           
         N5        1.0000    0.79016   0.10222   0.79750   Biso      1.000     N          -0.292997           
         N6        1.0000    0.21176   0.72415   0.38920   Biso      1.000     N          -0.258236           
         N7        1.0000    0.29016   0.39778   0.29750   Biso      1.000     N          -0.292997           
         N8        1.0000    0.28824   0.27585   0.38920   Biso      1.000     N          -0.258236           
         N9        1.0000    0.79016   0.39778   0.70250   Biso      1.000     N          -0.292997           
         N10       1.0000    0.78824   0.27585   0.61080   Biso      1.000     N          -0.258236           
         N11       1.0000    0.78824   0.22415   0.88920   Biso      1.000     N          -0.258236           
         N12       1.0000    0.21176   0.77585   0.11080   Biso      1.000     N          -0.258236           
         N13       1.0000    0.20984   0.89778   0.20250   Biso      1.000     N          -0.292997           
         N14       1.0000    0.20984   0.60222   0.29750   Biso      1.000     N          -0.292997           
         N15       1.0000    0.71176   0.77585   0.88920   Biso      1.000     N          -0.258236           
         N16       1.0000    0.70984   0.89778   0.79750   Biso      1.000     N          -0.292997           
         O1        1.0000    0.12562   0.46625   0.10859   Biso      1.000     O          -0.5379229999999999           
         O2        1.0000    0.21710   0.37680   0.03653   Biso      1.000     O          -0.596479           
         O3        1.0000    0.37438   0.96625   0.39141   Biso      1.000     O          -0.5379229999999999           
         O4        1.0000    0.37438   0.53375   0.10859   Biso      1.000     O          -0.5379229999999999           
         O5        1.0000    0.28290   0.62320   0.03653   Biso      1.000     O          -0.596479           
         O6        1.0000    0.62562   0.46625   0.89141   Biso      1.000     O          -0.5379229999999999           
         O7        1.0000    0.28290   0.87680   0.46347   Biso      1.000     O          -0.596479           
         O8        1.0000    0.71710   0.12320   0.53653   Biso      1.000     O          -0.596479           
         O9        1.0000    0.78290   0.62320   0.96347   Biso      1.000     O          -0.596479           
         O10       1.0000    0.87438   0.53375   0.89141   Biso      1.000     O          -0.5379229999999999           
         O11       1.0000    0.87438   0.96625   0.60859   Biso      1.000     O          -0.5379229999999999           
         O12       1.0000    0.78290   0.87680   0.53653   Biso      1.000     O          -0.596479           
         O13       1.0000    0.21710   0.12320   0.46347   Biso      1.000     O          -0.596479           
         O14       1.0000    0.12562   0.03375   0.39141   Biso      1.000     O          -0.5379229999999999           
         O15       1.0000    0.71710   0.37680   0.96347   Biso      1.000     O          -0.596479           
         O16       1.0000    0.62562   0.03375   0.60859   Biso      1.000     O          -0.5379229999999999 