
##########################################################################
#               Crystallographic Information Format file
#               Produced by PyCifRW module
#
#  This is a CIF file.  CIF has been adopted by the International
#  Union of Crystallography as the standard for data archiving and
#  transmission.
#
#  For information on this file format, follow the CIF links at
#  http://www.iucr.org
##########################################################################

data_image0

_cell_length_a                          13.202
_cell_length_b                          27.475
_cell_length_c                          7.641
_cell_angle_alpha                       90
_cell_angle_beta                        123.254
_cell_angle_gamma                       90
_symmetry_space_group_name_H-M          'P 1'
_symmetry_int_tables_number             1
loop_
  _symmetry_equiv_pos_as_xyz
         'x, y, z' 
loop_
  _atom_site_label
  _atom_site_occupancy
  _atom_site_fract_x
  _atom_site_fract_y
  _atom_site_fract_z
  _atom_site_thermal_displace_type
  _atom_site_B_iso_or_equiv
  _atom_site_type_symbol
  _atom_site_charge
         C1        1.0000    0.92500   0.28360   0.49740   Biso      1.000     C          -0.14688099999999998          
         C2        1.0000    0.07430   0.01260   0.64870   Biso      1.000     C          0.044805000000000005          
         C3        1.0000    0.16130   0.97950   0.67480   Biso      1.000     C          -0.12983599999999998          
         C4        1.0000    0.27890   0.99090   0.75630   Biso      1.000     C          -0.090545           
         C5        1.0000    0.31540   0.03810   0.78930   Biso      1.000     C          -0.025009           
         C6        1.0000    0.44490   0.94770   0.36110   Biso      1.000     C          0.572623  
         C7        1.0000    0.22850   0.07500   0.75380   Biso      1.000     C          -0.11162899999999999          
         C8        1.0000    0.10870   0.06310   0.67520   Biso      1.000     C          -0.155937           
         C9        1.0000    0.27880   0.66050   0.26520   Biso      1.000     C          0.604297  
         C10       1.0000    0.95120   0.99860   0.56260   Biso      1.000     C          0.115882  
         C11       1.0000    0.75490   0.99370   0.92980   Biso      1.000     C          0.159698  
         C12       1.0000    0.42500   0.21640   0.99740   Biso      1.000     C          -0.14688199999999998          
         C13       1.0000    0.54450   0.82570   0.04910   Biso      1.000     C          -0.104673           
         C14       1.0000    0.49950   0.82150   0.84530   Biso      1.000     C          0.109748  
         C15       1.0000    0.44820   0.77800   0.69810   Biso      1.000     C          0.066993  
         C16       1.0000    0.77880   0.83950   0.76520   Biso      1.000     C          0.604297  
         C17       1.0000    0.42730   0.73550   0.76130   Biso      1.000     C          -0.143041           
         C18       1.0000    0.36900   0.25360   0.85430   Biso      1.000     C          -0.088995           
         C19       1.0000    0.37000   0.69750   0.61510   Biso      1.000     C          -0.11933800000000001          
         C20       1.0000    0.54580   0.89620   0.95230   Biso      1.000     C          0.174625  
         C21       1.0000    0.90370   0.95340   0.56670   Biso      1.000     C          -0.09704  
         C22       1.0000    0.75490   0.00630   0.42980   Biso      1.000     C          0.159698  
         C23       1.0000    0.44490   0.05230   0.86110   Biso      1.000     C          0.572623  
         C24       1.0000    0.04580   0.60380   0.45230   Biso      1.000     C          0.174626  
         C25       1.0000    0.72850   0.42500   0.25380   Biso      1.000     C          -0.11162799999999999          
         C26       1.0000    0.04450   0.67430   0.54910   Biso      1.000     C          -0.104673           
         C27       1.0000    0.99950   0.67850   0.34530   Biso      1.000     C          0.109748  
         C28       1.0000    0.94820   0.72200   0.19810   Biso      1.000     C          0.066993  
         C29       1.0000    0.92730   0.76450   0.26130   Biso      1.000     C          -0.143041           
         C30       1.0000    0.81540   0.46190   0.28930   Biso      1.000     C          -0.02502  
         C31       1.0000    0.87000   0.80250   0.11510   Biso      1.000     C          -0.11933900000000001          
         C32       1.0000    0.84330   0.79740   0.91320   Biso      1.000     C          -0.041839           
         C33       1.0000    0.77890   0.50910   0.25630   Biso      1.000     C          -0.090545           
         C34       1.0000    0.86900   0.75360   0.85430   Biso      1.000     C          -0.088997           
         C35       1.0000    0.92500   0.71640   0.99740   Biso      1.000     C          -0.146879           
         C36       1.0000    0.66130   0.52050   0.17480   Biso      1.000     C          -0.129826           
         C37       1.0000    0.57430   0.48740   0.14870   Biso      1.000     C          0.044805000000000005          
         C38       1.0000    0.45120   0.50140   0.06260   Biso      1.000     C          0.115882  
         C39       1.0000    0.40370   0.54660   0.06670   Biso      1.000     C          -0.09704  
         C40       1.0000    0.25490   0.49370   0.92980   Biso      1.000     C          0.159698  
         C41       1.0000    0.90370   0.04660   0.06670   Biso      1.000     C          -0.09704  
         C42       1.0000    0.94490   0.44770   0.36110   Biso      1.000     C          0.572624  
         C43       1.0000    0.34330   0.70260   0.41320   Biso      1.000     C          -0.041839           
         C44       1.0000    0.36900   0.74640   0.35430   Biso      1.000     C          -0.088997           
         C45       1.0000    0.60870   0.43690   0.17520   Biso      1.000     C          -0.155937           
         C46       1.0000    0.42500   0.78360   0.49740   Biso      1.000     C          -0.146879           
         C47       1.0000    0.45120   0.49860   0.56260   Biso      1.000     C          0.115882  
         C48       1.0000    0.94820   0.27800   0.69810   Biso      1.000     C          0.066995  
         C49       1.0000    0.57430   0.51260   0.64870   Biso      1.000     C          0.044805000000000005          
         C50       1.0000    0.99950   0.32150   0.84530   Biso      1.000     C          0.10971900000000001           
         C51       1.0000    0.04450   0.32570   0.04910   Biso      1.000     C          -0.10464200000000001          
         C52       1.0000    0.66130   0.47950   0.67480   Biso      1.000     C          -0.12983599999999998          
         C53       1.0000    0.40370   0.45340   0.56670   Biso      1.000     C          -0.09704  
         C54       1.0000    0.22850   0.92500   0.25380   Biso      1.000     C          -0.11162899999999999          
         C55       1.0000    0.77890   0.49090   0.75630   Biso      1.000     C          -0.090545           
         C56       1.0000    0.34330   0.29740   0.91320   Biso      1.000     C          -0.041839999999999995         
         C57       1.0000    0.81540   0.53810   0.78930   Biso      1.000     C          -0.025009           
         C58       1.0000    0.27890   0.00910   0.25630   Biso      1.000     C          -0.090558           
         C59       1.0000    0.77880   0.16050   0.26520   Biso      1.000     C          0.604298  
         C60       1.0000    0.60870   0.56310   0.67520   Biso      1.000     C          -0.15593800000000002          
         C61       1.0000    0.04580   0.39620   0.95230   Biso      1.000     C          0.174625  
         C62       1.0000    0.72850   0.57500   0.75380   Biso      1.000     C          -0.11162899999999999          
         C63       1.0000    0.10870   0.93690   0.17520   Biso      1.000     C          -0.155937           
         C64       1.0000    0.16130   0.02050   0.17480   Biso      1.000     C          -0.129824           
         C65       1.0000    0.95120   0.00140   0.06260   Biso      1.000     C          0.115882  
         C66       1.0000    0.37000   0.30250   0.11510   Biso      1.000     C          -0.11933599999999998          
         C67       1.0000    0.86900   0.24640   0.35430   Biso      1.000     C          -0.088995           
         C68       1.0000    0.42730   0.26450   0.26130   Biso      1.000     C          -0.143059           
         C69       1.0000    0.07430   0.98740   0.14870   Biso      1.000     C          0.044805000000000005          
         C70       1.0000    0.44820   0.22200   0.19810   Biso      1.000     C          0.067012  
         C71       1.0000    0.25490   0.50630   0.42980   Biso      1.000     C          0.159698  
         C72       1.0000    0.49950   0.17850   0.34530   Biso      1.000     C          0.10971800000000001           
         C73       1.0000    0.84330   0.20260   0.41320   Biso      1.000     C          -0.041839999999999995         
         C74       1.0000    0.54580   0.10380   0.45230   Biso      1.000     C          0.174625  
         C75       1.0000    0.87000   0.19750   0.61510   Biso      1.000     C          -0.11933900000000001          
         C76       1.0000    0.92730   0.23550   0.76130   Biso      1.000     C          -0.143042           
         C77       1.0000    0.94490   0.55230   0.86110   Biso      1.000     C          0.572623  
         C78       1.0000    0.27880   0.33950   0.76520   Biso      1.000     C          0.604297  
         C79       1.0000    0.54450   0.17430   0.54910   Biso      1.000     C          -0.10464200000000001          
         C80       1.0000    0.31540   0.96190   0.28930   Biso      1.000     C          -0.025008000000000002         
         Cd1       1.0000    0.15111   0.59793   0.93916   Biso      1.000     Cd          0.8239549999999999  
         Cd2       1.0000    0.65111   0.90207   0.43916   Biso      1.000     Cd          0.8239549999999999  
         Cd3       1.0000    0.65111   0.09793   0.93916   Biso      1.000     Cd          0.8239549999999999  
         Cd4       1.0000    0.15111   0.40207   0.43916   Biso      1.000     Cd          0.8239549999999999  
         H1        1.0000    0.17760   0.48050   0.86660   Biso      1.000     H          0.108252  
         H2        1.0000    0.55160   0.41260   0.14020   Biso      1.000     H          0.116874  
         H3        1.0000    0.34830   0.24940   0.71770   Biso      1.000     H          0.11686099999999999           
         H4        1.0000    0.35000   0.33120   0.15390   Biso      1.000     H          0.11248599999999999           
         H5        1.0000    0.45030   0.26870   0.39920   Biso      1.000     H          0.122208  
         H6        1.0000    0.55400   0.20010   0.63570   Biso      1.000     H          0.12645599999999999           
         H7        1.0000    0.55580   0.07030   0.45070   Biso      1.000     H          0.08370599999999999           
         H8        1.0000    0.75300   0.39270   0.28400   Biso      1.000     H          0.116968  
         H9        1.0000    0.13720   0.05260   0.13380   Biso      1.000     H          0.10662   
         H10       1.0000    0.67760   0.98050   0.86660   Biso      1.000     H          0.108252  
         H11       1.0000    0.36010   0.43770   0.97130   Biso      1.000     H          0.308526  
         H12       1.0000    0.05160   0.91260   0.14020   Biso      1.000     H          0.116874  
         H13       1.0000    0.83510   0.53370   0.28990   Biso      1.000     H          0.11261700000000001           
         H14       1.0000    0.33510   0.03370   0.28990   Biso      1.000     H          0.11261800000000001           
         H15       1.0000    0.97440   0.62220   0.15900   Biso      1.000     H          0.298624  
         H16       1.0000    0.63720   0.55260   0.13380   Biso      1.000     H          0.10662   
         H17       1.0000    0.25300   0.89270   0.28400   Biso      1.000     H          0.116968  
         H18       1.0000    0.44760   0.57540   0.11870   Biso      1.000     H          0.134393  
         H19       1.0000    0.44710   0.18790   0.96090   Biso      1.000     H          0.12355899999999999           
         H20       1.0000    0.47440   0.87780   0.65900   Biso      1.000     H          0.298624  
         H21       1.0000    0.05400   0.70010   0.63570   Biso      1.000     H          0.126459  
         H22       1.0000    0.55400   0.79990   0.13570   Biso      1.000     H          0.126459  
         H23       1.0000    0.05580   0.57030   0.45070   Biso      1.000     H          0.08370599999999999           
         H24       1.0000    0.35000   0.66880   0.65390   Biso      1.000     H          0.11248599999999999           
         H25       1.0000    0.34830   0.75060   0.21770   Biso      1.000     H          0.116862  
         H26       1.0000    0.44710   0.81210   0.46090   Biso      1.000     H          0.12355899999999999           
         H27       1.0000    0.86010   0.93770   0.97130   Biso      1.000     H          0.308526  
         H28       1.0000    0.36010   0.56230   0.47130   Biso      1.000     H          0.308526  
         H29       1.0000    0.97440   0.37780   0.65900   Biso      1.000     H          0.298623  
         H30       1.0000    0.17760   0.51950   0.36660   Biso      1.000     H          0.108252  
         H31       1.0000    0.55580   0.92970   0.95070   Biso      1.000     H          0.08370599999999999           
         H32       1.0000    0.44760   0.42460   0.61870   Biso      1.000     H          0.134393  
         H33       1.0000    0.83510   0.46630   0.78990   Biso      1.000     H          0.11261700000000001           
         H34       1.0000    0.75300   0.60730   0.78400   Biso      1.000     H          0.116968  
         H35       1.0000    0.55160   0.58740   0.64020   Biso      1.000     H          0.116874  
         H36       1.0000    0.05580   0.42970   0.95070   Biso      1.000     H          0.08370599999999999           
         H37       1.0000    0.05400   0.29990   0.13570   Biso      1.000     H          0.12645699999999999           
         H38       1.0000    0.95030   0.23130   0.89920   Biso      1.000     H          0.122206  
         H39       1.0000    0.85000   0.16880   0.65390   Biso      1.000     H          0.11248599999999999           
         H40       1.0000    0.84830   0.25060   0.21770   Biso      1.000     H          0.11686099999999999           
         H41       1.0000    0.94710   0.31210   0.46090   Biso      1.000     H          0.12355899999999999           
         H42       1.0000    0.63720   0.44740   0.63380   Biso      1.000     H          0.10662100000000001           
         H43       1.0000    0.05160   0.08740   0.64020   Biso      1.000     H          0.116874  
         H44       1.0000    0.45030   0.73130   0.89920   Biso      1.000     H          0.122207  
         H45       1.0000    0.33510   0.96630   0.78990   Biso      1.000     H          0.11261700000000001           
         H46       1.0000    0.95030   0.76870   0.39920   Biso      1.000     H          0.122206  
         H47       1.0000    0.85000   0.83120   0.15390   Biso      1.000     H          0.11248599999999999           
         H48       1.0000    0.84830   0.74940   0.71770   Biso      1.000     H          0.116862  
         H49       1.0000    0.94710   0.68790   0.96090   Biso      1.000     H          0.12355899999999999           
         H50       1.0000    0.47440   0.12220   0.15900   Biso      1.000     H          0.298623  
         H51       1.0000    0.86010   0.06230   0.47130   Biso      1.000     H          0.308526  
         H52       1.0000    0.25300   0.10730   0.78400   Biso      1.000     H          0.116968  
         H53       1.0000    0.67760   0.01950   0.36660   Biso      1.000     H          0.108252  
         H54       1.0000    0.94760   0.07540   0.11870   Biso      1.000     H          0.134393  
         H55       1.0000    0.13720   0.94740   0.63380   Biso      1.000     H          0.10662   
         H56       1.0000    0.94760   0.92460   0.61870   Biso      1.000     H          0.134393  
         N1        1.0000    0.85560   0.96860   0.98360   Biso      1.000     N          -0.268546           
         N2        1.0000    0.35560   0.46860   0.98360   Biso      1.000     N          -0.268546           
         N3        1.0000    0.28340   0.54160   0.98240   Biso      1.000     N          -0.286937           
         N4        1.0000    0.57460   0.12730   0.61410   Biso      1.000     N          -0.27057  
         N5        1.0000    0.49960   0.13170   0.28380   Biso      1.000     N          -0.27310500000000004          
         N6        1.0000    0.99960   0.63170   0.28380   Biso      1.000     N          -0.273108           
         N7        1.0000    0.78340   0.04160   0.98240   Biso      1.000     N          -0.286936           
         N8        1.0000    0.99960   0.36830   0.78380   Biso      1.000     N          -0.273106           
         N9        1.0000    0.85560   0.03140   0.48360   Biso      1.000     N          -0.268546           
         N10       1.0000    0.78340   0.95840   0.48240   Biso      1.000     N          -0.286937           
         N11       1.0000    0.49960   0.86830   0.78380   Biso      1.000     N          -0.273108           
         N12       1.0000    0.07460   0.37270   0.11410   Biso      1.000     N          -0.27057  
         N13       1.0000    0.07460   0.62730   0.61410   Biso      1.000     N          -0.270566           
         N14       1.0000    0.57460   0.87270   0.11410   Biso      1.000     N          -0.270566           
         N15       1.0000    0.28340   0.45840   0.48240   Biso      1.000     N          -0.286937           
         N16       1.0000    0.35560   0.53140   0.48360   Biso      1.000     N          -0.268546           
         O1        1.0000    0.27360   0.37810   0.80850   Biso      1.000     O          -0.535064           
         O2        1.0000    0.23200   0.32780   0.56760   Biso      1.000     O          -0.631683           
         O3        1.0000    0.47330   0.09620   0.92210   Biso      1.000     O          -0.582114           
         O4        1.0000    0.01090   0.47630   0.35000   Biso      1.000     O          -0.557998           
         O5        1.0000    0.77360   0.87810   0.80850   Biso      1.000     O          -0.535064           
         O6        1.0000    0.73200   0.82780   0.56760   Biso      1.000     O          -0.631683           
         O7        1.0000    0.51090   0.97630   0.35000   Biso      1.000     O          -0.557998           
         O8        1.0000    0.51090   0.02370   0.85000   Biso      1.000     O          -0.557998           
         O9        1.0000    0.27360   0.62190   0.30850   Biso      1.000     O          -0.535064           
         O10       1.0000    0.23200   0.67220   0.06760   Biso      1.000     O          -0.631683           
         O11       1.0000    0.97330   0.59620   0.92210   Biso      1.000     O          -0.582114           
         O12       1.0000    0.01090   0.52370   0.85000   Biso      1.000     O          -0.557998           
         O13       1.0000    0.77360   0.12190   0.30850   Biso      1.000     O          -0.535064           
         O14       1.0000    0.73200   0.17220   0.06760   Biso      1.000     O          -0.631683           
         O15       1.0000    0.97330   0.40380   0.42210   Biso      1.000     O          -0.582114           
         O16       1.0000    0.47330   0.90380   0.42210   Biso      1.000     O          -0.582114 