
##########################################################################
#               Crystallographic Information Format file
#               Produced by PyCifRW module
#
#  This is a CIF file.  CIF has been adopted by the International
#  Union of Crystallography as the standard for data archiving and
#  transmission.
#
#  For information on this file format, follow the CIF links at
#  http://www.iucr.org
##########################################################################

data_image0

_cell_length_a                          9.1581
_cell_length_b                          9.7109
_cell_length_c                          22.3358
_cell_angle_alpha                       90
_cell_angle_beta                        90
_cell_angle_gamma                       117.485
_symmetry_space_group_name_H-M          'P 1'
_symmetry_int_tables_number             1
loop_
  _symmetry_equiv_pos_as_xyz
         'x, y, z' 
loop_
  _atom_site_label
  _atom_site_occupancy
  _atom_site_fract_x
  _atom_site_fract_y
  _atom_site_fract_z
  _atom_site_thermal_displace_type
  _atom_site_B_iso_or_equiv
  _atom_site_type_symbol
  _atom_site_charge
         Ag1       1.0000    0.01655   0.67970   0.85216   Biso      1.000     Ag          0.426932  
         Ag2       1.0000    0.48345   0.32030   0.35216   Biso      1.000     Ag          0.426935  
         Ag3       1.0000    0.98345   0.32030   0.14784   Biso      1.000     Ag          0.42693000000000003           
         Ag4       1.0000    0.51655   0.67970   0.64784   Biso      1.000     Ag          0.426937  
         C1        1.0000    0.50320   0.48010   0.46700   Biso      1.000     C          0.48879399999999995           
         C2        1.0000    0.83500   0.02190   0.88140   Biso      1.000     C          -0.099906           
         C3        1.0000    0.95140   0.13450   0.91678   Biso      1.000     C          -0.048683           
         C4        1.0000    0.08480   0.11720   0.93639   Biso      1.000     C          -0.052587           
         C5        1.0000    0.21960   0.24290   0.97289   Biso      1.000     C          0.5943510000000001  
         C6        1.0000    0.47910   0.43660   0.22563   Biso      1.000     C          0.016142  
         C7        1.0000    0.41400   0.63230   0.19000   Biso      1.000     C          -0.047763           
         C8        1.0000    0.85620   0.89620   0.86550   Biso      1.000     C          0.07201   
         C9        1.0000    0.39070   0.66020   0.24880   Biso      1.000     C          -0.13045299999999999          
         C10       1.0000    0.40900   0.57280   0.29340   Biso      1.000     C          0.086113  
         C11       1.0000    0.49220   0.47880   0.11627   Biso      1.000     C          0.5732    
         C12       1.0000    0.46010   0.51790   0.17793   Biso      1.000     C          -0.056704           
         C13       1.0000    0.09470   0.98500   0.91989   Biso      1.000     C          0.045363  
         C14       1.0000    0.03990   0.48210   0.67793   Biso      1.000     C          -0.056701           
         C15       1.0000    0.99190   0.99170   0.46564   Biso      1.000     C          0.48747299999999993           
         C16       1.0000    0.08600   0.36770   0.69000   Biso      1.000     C          -0.047760000000000004         
         C17       1.0000    0.10930   0.33980   0.74880   Biso      1.000     C          -0.130457           
         C18       1.0000    0.09100   0.42720   0.79340   Biso      1.000     C          0.086108  
         C19       1.0000    0.00780   0.52120   0.61627   Biso      1.000     C          0.573159  
         C20       1.0000    0.50810   0.00830   0.96564   Biso      1.000     C          0.48745299999999997           
         C21       1.0000    0.99680   0.51990   0.96700   Biso      1.000     C          0.48879700000000004           
         C22       1.0000    0.28040   0.75710   0.47289   Biso      1.000     C          0.5943510000000001  
         C23       1.0000    0.41520   0.88280   0.43639   Biso      1.000     C          -0.052583000000000005         
         C24       1.0000    0.54860   0.86550   0.41678   Biso      1.000     C          -0.048688999999999996         
         C25       1.0000    0.66500   0.97810   0.38140   Biso      1.000     C          -0.099899           
         C26       1.0000    0.02090   0.56340   0.72563   Biso      1.000     C          0.016146  
         C27       1.0000    0.78040   0.75710   0.02711   Biso      1.000     C          0.59435   
         C28       1.0000    0.16500   0.97810   0.11860   Biso      1.000     C          -0.09990700000000001          
         C29       1.0000    0.04860   0.86550   0.08322   Biso      1.000     C          -0.048683           
         C30       1.0000    0.49680   0.51990   0.53300   Biso      1.000     C          0.48879399999999995           
         C31       1.0000    0.00810   0.00830   0.53436   Biso      1.000     C          0.48747700000000005           
         C32       1.0000    0.50780   0.52120   0.88373   Biso      1.000     C          0.573199  
         C33       1.0000    0.59100   0.42720   0.70660   Biso      1.000     C          0.08610599999999999           
         C34       1.0000    0.60930   0.33980   0.75120   Biso      1.000     C          -0.130449           
         C35       1.0000    0.58600   0.36770   0.81000   Biso      1.000     C          -0.047762           
         C36       1.0000    0.53990   0.48210   0.82207   Biso      1.000     C          -0.05670700000000001          
         C37       1.0000    0.52090   0.56340   0.77437   Biso      1.000     C          0.016142  
         C38       1.0000    0.59470   0.98500   0.58011   Biso      1.000     C          0.045357  
         C39       1.0000    0.35620   0.89620   0.63450   Biso      1.000     C          0.072004  
         C40       1.0000    0.33500   0.02190   0.61860   Biso      1.000     C          -0.099902           
         C41       1.0000    0.45140   0.13450   0.58322   Biso      1.000     C          -0.048685           
         C42       1.0000    0.58480   0.11720   0.56361   Biso      1.000     C          -0.052578           
         C43       1.0000    0.71960   0.24290   0.52711   Biso      1.000     C          0.5943470000000001  
         C44       1.0000    0.00320   0.48010   0.03300   Biso      1.000     C          0.48879700000000004           
         C45       1.0000    0.49190   0.99170   0.03436   Biso      1.000     C          0.487451  
         C46       1.0000    0.99220   0.47880   0.38373   Biso      1.000     C          0.5731649999999999  
         C47       1.0000    0.90900   0.57280   0.20660   Biso      1.000     C          0.086102  
         C48       1.0000    0.89070   0.66020   0.25120   Biso      1.000     C          -0.13045199999999998          
         C49       1.0000    0.91400   0.63230   0.31000   Biso      1.000     C          -0.047758999999999996         
         C50       1.0000    0.96010   0.51790   0.32207   Biso      1.000     C          -0.056701           
         C51       1.0000    0.97910   0.43660   0.27437   Biso      1.000     C          0.016145  
         C52       1.0000    0.90530   0.01500   0.08011   Biso      1.000     C          0.045360000000000004          
         C53       1.0000    0.14380   0.10380   0.13450   Biso      1.000     C          0.07201   
         C54       1.0000    0.64380   0.10380   0.36550   Biso      1.000     C          0.072008  
         C55       1.0000    0.91520   0.88280   0.06361   Biso      1.000     C          -0.052585           
         C56       1.0000    0.40530   0.01500   0.41989   Biso      1.000     C          0.045363  
         Eu1       1.0000    0.61790   0.35660   0.00862   Biso      1.000     Eu          1.320566  
         Eu2       1.0000    0.88210   0.64340   0.50862   Biso      1.000     Eu          1.320561  
         Eu3       1.0000    0.38210   0.64340   0.99138   Biso      1.000     Eu          1.320567  
         Eu4       1.0000    0.11790   0.35660   0.49138   Biso      1.000     Eu          1.320561  
         H1        1.0000    0.63750   0.26170   0.74190   Biso      1.000     H          0.127557  
         H2        1.0000    0.31770   0.02880   0.43420   Biso      1.000     H          0.10678399999999999           
         H3        1.0000    0.72180   0.17840   0.34070   Biso      1.000     H          0.083995  
         H4        1.0000    0.75670   0.96910   0.36840   Biso      1.000     H          0.13169   
         H5        1.0000    0.55960   0.77820   0.42750   Biso      1.000     H          0.12203   
         H6        1.0000    0.11040   0.40860   0.83270   Biso      1.000     H          0.104242  
         H7        1.0000    0.13750   0.26170   0.75810   Biso      1.000     H          0.12756099999999998           
         H8        1.0000    0.98890   0.63950   0.71760   Biso      1.000     H          0.098726  
         H9        1.0000    0.61040   0.40860   0.66730   Biso      1.000     H          0.10424000000000001           
         H10       1.0000    0.18230   0.97120   0.93420   Biso      1.000     H          0.10678399999999999           
         H11       1.0000    0.77820   0.82160   0.84070   Biso      1.000     H          0.083995  
         H12       1.0000    0.74330   0.03090   0.86840   Biso      1.000     H          0.131688  
         H13       1.0000    0.94040   0.22180   0.92750   Biso      1.000     H          0.122029  
         H14       1.0000    0.10090   0.31110   0.65910   Biso      1.000     H          0.136439  
         H15       1.0000    0.39910   0.68890   0.15910   Biso      1.000     H          0.136439  
         H16       1.0000    0.51110   0.36050   0.21760   Biso      1.000     H          0.098723  
         H17       1.0000    0.38960   0.59140   0.33270   Biso      1.000     H          0.10424000000000001           
         H18       1.0000    0.60090   0.31110   0.84090   Biso      1.000     H          0.136438  
         H19       1.0000    0.48890   0.63950   0.78240   Biso      1.000     H          0.098723  
         H20       1.0000    0.68230   0.97120   0.56580   Biso      1.000     H          0.10678399999999999           
         H21       1.0000    0.27820   0.82160   0.65930   Biso      1.000     H          0.083995  
         H22       1.0000    0.24330   0.03090   0.63160   Biso      1.000     H          0.13169   
         H23       1.0000    0.36250   0.73830   0.25810   Biso      1.000     H          0.127557  
         H24       1.0000    0.88960   0.59140   0.16730   Biso      1.000     H          0.104242  
         H25       1.0000    0.44040   0.22180   0.57250   Biso      1.000     H          0.12203   
         H26       1.0000    0.89910   0.68890   0.34090   Biso      1.000     H          0.136439  
         H27       1.0000    0.01110   0.36050   0.28240   Biso      1.000     H          0.098725  
         H28       1.0000    0.81770   0.02880   0.06580   Biso      1.000     H          0.10678399999999999           
         H29       1.0000    0.22180   0.17840   0.15930   Biso      1.000     H          0.083995  
         H30       1.0000    0.25670   0.96910   0.13160   Biso      1.000     H          0.131688  
         H31       1.0000    0.05960   0.77820   0.07250   Biso      1.000     H          0.122029  
         H32       1.0000    0.86250   0.73830   0.24190   Biso      1.000     H          0.12756099999999998           
         N1        1.0000    0.54620   0.53840   0.71723   Biso      1.000     N          -0.183542           
         N2        1.0000    0.48380   0.87490   0.61597   Biso      1.000     N          -0.18291300000000002          
         N3        1.0000    0.95380   0.46160   0.21723   Biso      1.000     N          -0.183542           
         N4        1.0000    0.01620   0.12510   0.11597   Biso      1.000     N          -0.18291300000000002          
         N5        1.0000    0.51620   0.12510   0.38403   Biso      1.000     N          -0.18291300000000002          
         N6        1.0000    0.04620   0.53840   0.78277   Biso      1.000     N          -0.183543           
         N7        1.0000    0.45380   0.46160   0.28277   Biso      1.000     N          -0.183543           
         N8        1.0000    0.98380   0.87490   0.88403   Biso      1.000     N          -0.182912           
         O1        1.0000    0.36170   0.45840   0.55916   Biso      1.000     O          -0.501495           
         O2        1.0000    0.63170   0.61630   0.55607   Biso      1.000     O          -0.492554           
         O3        1.0000    0.54580   0.46200   0.92751   Biso      1.000     O          -0.569979           
         O4        1.0000    0.44530   0.61090   0.88922   Biso      1.000     O          -0.566872           
         O5        1.0000    0.71760   0.37010   0.52572   Biso      1.000     O          -0.559018           
         O6        1.0000    0.82390   0.21010   0.50277   Biso      1.000     O          -0.579413           
         O7        1.0000    0.04990   0.11630   0.43618   Biso      1.000     O          -0.448928           
         O8        1.0000    0.42150   0.85760   0.05567   Biso      1.000     O          -0.5015609999999999           
         O9        1.0000    0.13830   0.54160   0.05916   Biso      1.000     O          -0.501505           
         O10       1.0000    0.86830   0.38370   0.05607   Biso      1.000     O          -0.49256000000000005          
         O11       1.0000    0.95420   0.53800   0.42751   Biso      1.000     O          -0.569962           
         O12       1.0000    0.05470   0.38910   0.38922   Biso      1.000     O          -0.566871           
         O13       1.0000    0.78240   0.62990   0.02572   Biso      1.000     O          -0.5590189999999999           
         O14       1.0000    0.67610   0.78990   0.00277   Biso      1.000     O          -0.579413           
         O15       1.0000    0.54990   0.11630   0.06382   Biso      1.000     O          -0.448909           
         O16       1.0000    0.92150   0.85760   0.44433   Biso      1.000     O          -0.501567           
         O17       1.0000    0.36830   0.38370   0.44393   Biso      1.000     O          -0.49255699999999997          
         O18       1.0000    0.45420   0.53800   0.07249   Biso      1.000     O          -0.5699890000000001           
         O19       1.0000    0.55470   0.38910   0.11078   Biso      1.000     O          -0.566878           
         O20       1.0000    0.28240   0.62990   0.47428   Biso      1.000     O          -0.5590310000000001           
         O21       1.0000    0.17610   0.78990   0.49723   Biso      1.000     O          -0.5794189999999999           
         O22       1.0000    0.45010   0.88370   0.93618   Biso      1.000     O          -0.448908           
         O23       1.0000    0.57850   0.14240   0.94433   Biso      1.000     O          -0.501562           
         O24       1.0000    0.86170   0.45840   0.94084   Biso      1.000     O          -0.501506           
         O25       1.0000    0.13170   0.61630   0.94393   Biso      1.000     O          -0.492562           
         O26       1.0000    0.04580   0.46200   0.57249   Biso      1.000     O          -0.569959           
         O27       1.0000    0.94530   0.61090   0.61078   Biso      1.000     O          -0.566872           
         O28       1.0000    0.21760   0.37010   0.97428   Biso      1.000     O          -0.55902  
         O29       1.0000    0.32390   0.21010   0.99723   Biso      1.000     O          -0.5794100000000001           
         O30       1.0000    0.07850   0.14240   0.55567   Biso      1.000     O          -0.501566           
         O31       1.0000    0.63830   0.54160   0.44084   Biso      1.000     O          -0.501497           
         O32       1.0000    0.95010   0.88370   0.56382   Biso      1.000     O          -0.448928 