
##########################################################################
#               Crystallographic Information Format file
#               Produced by PyCifRW module
#
#  This is a CIF file.  CIF has been adopted by the International
#  Union of Crystallography as the standard for data archiving and
#  transmission.
#
#  For information on this file format, follow the CIF links at
#  http://www.iucr.org
##########################################################################

data_image0

_cell_length_a                          9.2458
_cell_length_b                          14.111
_cell_length_c                          16.4937
_cell_angle_alpha                       90
_cell_angle_beta                        92.912
_cell_angle_gamma                       90
_symmetry_space_group_name_H-M          'P 1'
_symmetry_int_tables_number             1
loop_
  _symmetry_equiv_pos_as_xyz
         'x, y, z' 
loop_
  _atom_site_label
  _atom_site_occupancy
  _atom_site_fract_x
  _atom_site_fract_y
  _atom_site_fract_z
  _atom_site_thermal_displace_type
  _atom_site_B_iso_or_equiv
  _atom_site_type_symbol
  _atom_site_charge
         C1        1.0000    0.86780   0.50440   0.60450   Biso      1.000     C          0.316587  
         C2        1.0000    0.05350   0.20910   0.58900   Biso      1.000     C          0.30898000000000003           
         C3        1.0000    0.14370   0.21410   0.88990   Biso      1.000     C          0.312734  
         C4        1.0000    0.14760   0.24280   0.26000   Biso      1.000     C          0.314863  
         C5        1.0000    0.36780   0.99560   0.10450   Biso      1.000     C          0.316587  
         C6        1.0000    0.55350   0.29090   0.08900   Biso      1.000     C          0.30898000000000003           
         C7        1.0000    0.64370   0.28590   0.38990   Biso      1.000     C          0.312734  
         C8        1.0000    0.35240   0.74280   0.24000   Biso      1.000     C          0.314863  
         C9        1.0000    0.13220   0.49560   0.39550   Biso      1.000     C          0.316587  
         C10       1.0000    0.94650   0.79090   0.41100   Biso      1.000     C          0.30898000000000003           
         C11       1.0000    0.85630   0.78590   0.11010   Biso      1.000     C          0.312734  
         C12       1.0000    0.44650   0.70910   0.91100   Biso      1.000     C          0.30898000000000003           
         C13       1.0000    0.63220   0.00440   0.89550   Biso      1.000     C          0.316587  
         C14       1.0000    0.85240   0.75720   0.74000   Biso      1.000     C          0.314863  
         C15       1.0000    0.35630   0.71410   0.61010   Biso      1.000     C          0.312734  
         C16       1.0000    0.64760   0.25720   0.76000   Biso      1.000     C          0.314863  
         Hg1       1.0000    0.01622   0.70461   0.58131   Biso      1.000     Hg          0.354325  
         Hg2       1.0000    0.48378   0.20461   0.91869   Biso      1.000     Hg          0.354325  
         Hg3       1.0000    0.98378   0.29539   0.41869   Biso      1.000     Hg          0.354325  
         Hg4       1.0000    0.51622   0.79539   0.08131   Biso      1.000     Hg          0.354325  
         Mn1       1.0000    0.02063   0.65175   0.25395   Biso      1.000     Mn          1.019775  
         Mn2       1.0000    0.52063   0.84825   0.75395   Biso      1.000     Mn          1.019776  
         Mn3       1.0000    0.97937   0.34825   0.74605   Biso      1.000     Mn          1.019774  
         Mn4       1.0000    0.47937   0.15175   0.24605   Biso      1.000     Mn          1.019774  
         N1        1.0000    0.10080   0.55410   0.35110   Biso      1.000     N          -0.47534099999999996          
         N2        1.0000    0.23620   0.72020   0.24780   Biso      1.000     N          -0.441582           
         N3        1.0000    0.57700   0.24510   0.34100   Biso      1.000     N          -0.46930299999999997          
         N4        1.0000    0.54680   0.24990   0.14840   Biso      1.000     N          -0.457128           
         N5        1.0000    0.39920   0.05410   0.14890   Biso      1.000     N          -0.47534099999999996          
         N6        1.0000    0.26380   0.22020   0.25220   Biso      1.000     N          -0.441582           
         N7        1.0000    0.07700   0.25490   0.84100   Biso      1.000     N          -0.46930200000000005          
         N8        1.0000    0.04680   0.25010   0.64840   Biso      1.000     N          -0.457128           
         N9        1.0000    0.89920   0.44590   0.64890   Biso      1.000     N          -0.47534099999999996          
         N10       1.0000    0.76380   0.27980   0.75220   Biso      1.000     N          -0.441582           
         N11       1.0000    0.42300   0.75490   0.65900   Biso      1.000     N          -0.46930299999999997          
         N12       1.0000    0.45320   0.75010   0.85160   Biso      1.000     N          -0.457129           
         N13       1.0000    0.95320   0.74990   0.35160   Biso      1.000     N          -0.457128           
         N14       1.0000    0.92300   0.74510   0.15900   Biso      1.000     N          -0.46930299999999997          
         N15       1.0000    0.73620   0.77980   0.74780   Biso      1.000     N          -0.441582           
         N16       1.0000    0.60080   0.94590   0.85110   Biso      1.000     N          -0.47534099999999996          
         S1        1.0000    0.02427   0.72678   0.73227   Biso      1.000     S          -0.207421           
         S2        1.0000    0.76357   0.84473   0.03842   Biso      1.000     S          -0.169802           
         S3        1.0000    0.93834   0.85106   0.49659   Biso      1.000     S          -0.21965700000000002          
         S4        1.0000    0.18161   0.41171   0.46090   Biso      1.000     S          -0.18703  
         S5        1.0000    0.73643   0.34473   0.46158   Biso      1.000     S          -0.169802           
         S6        1.0000    0.56166   0.35106   0.00341   Biso      1.000     S          -0.21965700000000002          
         S7        1.0000    0.68161   0.08829   0.96090   Biso      1.000     S          -0.18703  
         S8        1.0000    0.31839   0.91171   0.03910   Biso      1.000     S          -0.18703  
         S9        1.0000    0.23643   0.15527   0.96158   Biso      1.000     S          -0.169802           
         S10       1.0000    0.06166   0.14894   0.50341   Biso      1.000     S          -0.21965700000000002          
         S11       1.0000    0.81839   0.58829   0.53910   Biso      1.000     S          -0.18703  
         S12       1.0000    0.47573   0.22678   0.76773   Biso      1.000     S          -0.207421           
         S13       1.0000    0.26357   0.65527   0.53842   Biso      1.000     S          -0.169801           
         S14       1.0000    0.43834   0.64894   0.99659   Biso      1.000     S          -0.21965700000000002          
         S15       1.0000    0.97573   0.27322   0.26773   Biso      1.000     S          -0.207421           
         S16       1.0000    0.52427   0.77322   0.23227   Biso      1.000     S          -0.207421 