
##########################################################################
#               Crystallographic Information Format file
#               Produced by PyCifRW module
#
#  This is a CIF file.  CIF has been adopted by the International
#  Union of Crystallography as the standard for data archiving and
#  transmission.
#
#  For information on this file format, follow the CIF links at
#  http://www.iucr.org
##########################################################################

data_image0

_cell_length_a                          9.2515
_cell_length_b                          14.167
_cell_length_c                          16.5898
_cell_angle_alpha                       90
_cell_angle_beta                        93.032
_cell_angle_gamma                       90
_symmetry_space_group_name_H-M          'P 1'
_symmetry_int_tables_number             1
loop_
  _symmetry_equiv_pos_as_xyz
         'x, y, z' 
loop_
  _atom_site_label
  _atom_site_occupancy
  _atom_site_fract_x
  _atom_site_fract_y
  _atom_site_fract_z
  _atom_site_thermal_displace_type
  _atom_site_B_iso_or_equiv
  _atom_site_type_symbol
  _atom_site_charge
         C1        1.0000    0.36470   0.24860   0.74250   Biso      1.000     C          0.31404099999999996           
         C2        1.0000    0.36680   0.49440   0.60210   Biso      1.000     C          0.32424000000000003           
         C3        1.0000    0.13530   0.74860   0.75750   Biso      1.000     C          0.31404099999999996           
         C4        1.0000    0.64110   0.78920   0.89290   Biso      1.000     C          0.31349499999999997           
         C5        1.0000    0.55700   0.79530   0.58460   Biso      1.000     C          0.308737  
         C6        1.0000    0.13320   0.99440   0.89790   Biso      1.000     C          0.32424000000000003           
         C7        1.0000    0.85890   0.28920   0.60710   Biso      1.000     C          0.31349499999999997           
         C8        1.0000    0.94300   0.29530   0.91540   Biso      1.000     C          0.308737  
         C9        1.0000    0.05700   0.70470   0.08460   Biso      1.000     C          0.308737  
         C10       1.0000    0.14110   0.71080   0.39290   Biso      1.000     C          0.31349499999999997           
         C11       1.0000    0.63530   0.75140   0.25750   Biso      1.000     C          0.31404099999999996           
         C12       1.0000    0.86680   0.00560   0.10210   Biso      1.000     C          0.32424000000000003           
         C13       1.0000    0.44300   0.20470   0.41540   Biso      1.000     C          0.308737  
         C14       1.0000    0.35890   0.21080   0.10710   Biso      1.000     C          0.31349499999999997           
         C15       1.0000    0.86470   0.25140   0.24250   Biso      1.000     C          0.31404099999999996           
         C16       1.0000    0.63320   0.50560   0.39790   Biso      1.000     C          0.32424000000000003           
         Cd1       1.0000    0.97316   0.84317   0.24417   Biso      1.000     Cd          1.0547790000000001  
         Cd2       1.0000    0.47316   0.65683   0.74417   Biso      1.000     Cd          1.0547790000000001  
         Cd3       1.0000    0.02684   0.15683   0.75583   Biso      1.000     Cd          1.0547790000000001  
         Cd4       1.0000    0.52684   0.34317   0.25583   Biso      1.000     Cd          1.0547790000000001  
         Hg1       1.0000    0.02003   0.20431   0.08183   Biso      1.000     Hg          0.351016  
         Hg2       1.0000    0.52003   0.29569   0.58183   Biso      1.000     Hg          0.351016  
         Hg3       1.0000    0.97997   0.79569   0.91817   Biso      1.000     Hg          0.351016  
         Hg4       1.0000    0.47997   0.70431   0.41817   Biso      1.000     Hg          0.351016  
         N1        1.0000    0.75090   0.77210   0.24710   Biso      1.000     N          -0.44888599999999995          
         N2        1.0000    0.89670   0.94640   0.14410   Biso      1.000     N          -0.46801800000000005          
         N3        1.0000    0.44710   0.24390   0.35550   Biso      1.000     N          -0.46961400000000003          
         N4        1.0000    0.42750   0.24990   0.15590   Biso      1.000     N          -0.46796099999999996          
         N5        1.0000    0.74910   0.27210   0.25290   Biso      1.000     N          -0.44888599999999995          
         N6        1.0000    0.60330   0.44640   0.35590   Biso      1.000     N          -0.46801800000000005          
         N7        1.0000    0.24910   0.22790   0.75290   Biso      1.000     N          -0.44888599999999995          
         N8        1.0000    0.92750   0.25010   0.65590   Biso      1.000     N          -0.46796099999999996          
         N9        1.0000    0.10330   0.05360   0.85590   Biso      1.000     N          -0.46801800000000005          
         N10       1.0000    0.55290   0.75610   0.64450   Biso      1.000     N          -0.46961400000000003          
         N11       1.0000    0.57250   0.75010   0.84410   Biso      1.000     N          -0.46796099999999996          
         N12       1.0000    0.07250   0.74990   0.34410   Biso      1.000     N          -0.46796099999999996          
         N13       1.0000    0.94710   0.25610   0.85550   Biso      1.000     N          -0.46961400000000003          
         N14       1.0000    0.05290   0.74390   0.14450   Biso      1.000     N          -0.46961400000000003          
         N15       1.0000    0.39670   0.55360   0.64410   Biso      1.000     N          -0.46801800000000005          
         N16       1.0000    0.25090   0.72790   0.74710   Biso      1.000     N          -0.44888599999999995          
         S1        1.0000    0.31813   0.40793   0.53919   Biso      1.000     S          -0.198048           
         S2        1.0000    0.06034   0.64743   0.99806   Biso      1.000     S          -0.227881           
         S3        1.0000    0.23573   0.65489   0.46509   Biso      1.000     S          -0.17244  
         S4        1.0000    0.46344   0.72186   0.26752   Biso      1.000     S          -0.21345799999999998          
         S5        1.0000    0.43966   0.14743   0.50194   Biso      1.000     S          -0.227881           
         S6        1.0000    0.26427   0.15489   0.03491   Biso      1.000     S          -0.17244  
         S7        1.0000    0.96344   0.77814   0.76752   Biso      1.000     S          -0.21345799999999998          
         S8        1.0000    0.03656   0.22186   0.23248   Biso      1.000     S          -0.21345799999999998          
         S9        1.0000    0.93966   0.35257   0.00194   Biso      1.000     S          -0.22788200000000003          
         S10       1.0000    0.76427   0.34511   0.53491   Biso      1.000     S          -0.17244  
         S11       1.0000    0.53656   0.27814   0.73248   Biso      1.000     S          -0.21345799999999998          
         S12       1.0000    0.18187   0.90793   0.96081   Biso      1.000     S          -0.198048           
         S13       1.0000    0.56034   0.85257   0.49806   Biso      1.000     S          -0.22788200000000003          
         S14       1.0000    0.73573   0.84511   0.96509   Biso      1.000     S          -0.17244  
         S15       1.0000    0.68187   0.59207   0.46081   Biso      1.000     S          -0.198048           
         S16       1.0000    0.81813   0.09207   0.03919   Biso      1.000     S          -0.198048 