
##########################################################################
#               Crystallographic Information Format file
#               Produced by PyCifRW module
#
#  This is a CIF file.  CIF has been adopted by the International
#  Union of Crystallography as the standard for data archiving and
#  transmission.
#
#  For information on this file format, follow the CIF links at
#  http://www.iucr.org
##########################################################################

data_image0

_cell_length_a                          10.587
_cell_length_b                          26.0488
_cell_length_c                          11.7631
_cell_angle_alpha                       90
_cell_angle_beta                        98.326
_cell_angle_gamma                       90
_symmetry_space_group_name_H-M          'P 1'
_symmetry_int_tables_number             1
loop_
  _symmetry_equiv_pos_as_xyz
         'x, y, z' 
loop_
  _atom_site_label
  _atom_site_occupancy
  _atom_site_fract_x
  _atom_site_fract_y
  _atom_site_fract_z
  _atom_site_thermal_displace_type
  _atom_site_B_iso_or_equiv
  _atom_site_type_symbol
  _atom_site_charge
         C1        1.0000    0.48030   0.50135   0.93440   Biso      1.000     C          0.537866  
         C2        1.0000    0.18930   0.21488   0.64730   Biso      1.000     C          -0.078982           
         C3        1.0000    0.13080   0.15269   0.49010   Biso      1.000     C          -0.405309           
         C4        1.0000    0.00460   0.51664   0.55570   Biso      1.000     C          0.540054  
         C5        1.0000    0.99540   0.48336   0.44430   Biso      1.000     C          0.540054  
         C6        1.0000    0.70870   0.27714   0.83200   Biso      1.000     C          0.501668  
         C7        1.0000    0.67020   0.22253   0.78530   Biso      1.000     C          0.516592  
         C8        1.0000    0.84880   0.37613   0.59290   Biso      1.000     C          0.502616  
         C9        1.0000    0.92790   0.32710   0.57970   Biso      1.000     C          0.518822  
         C10       1.0000    0.38780   0.33188   0.65780   Biso      1.000     C          0.500749  
         C11       1.0000    0.38060   0.35521   0.53700   Biso      1.000     C          0.495058  
         C12       1.0000    0.00040   0.33940   0.14860   Biso      1.000     C          -0.08092  
         C13       1.0000    0.00450   0.33120   0.27690   Biso      1.000     C          -0.203469           
         C14       1.0000    0.06430   0.27940   0.31290   Biso      1.000     C          -0.177307           
         C15       1.0000    0.19370   0.27550   0.27540   Biso      1.000     C          -0.202258           
         C16       1.0000    0.18930   0.28512   0.14730   Biso      1.000     C          -0.078982           
         C17       1.0000    0.13080   0.34731   0.99010   Biso      1.000     C          -0.405309           
         C18       1.0000    0.51970   0.00135   0.56560   Biso      1.000     C          0.537866  
         C19       1.0000    0.00460   0.98336   0.05570   Biso      1.000     C          0.540054  
         C20       1.0000    0.29130   0.77714   0.66800   Biso      1.000     C          0.501668  
         C21       1.0000    0.19370   0.22450   0.77540   Biso      1.000     C          -0.202258           
         C22       1.0000    0.06430   0.22060   0.81290   Biso      1.000     C          -0.177307           
         C23       1.0000    0.00450   0.16880   0.77690   Biso      1.000     C          -0.203469           
         C24       1.0000    0.00040   0.16060   0.64860   Biso      1.000     C          -0.08092  
         C25       1.0000    0.29130   0.72286   0.16800   Biso      1.000     C          0.501668  
         C26       1.0000    0.32980   0.77747   0.21470   Biso      1.000     C          0.516592  
         C27       1.0000    0.15120   0.62387   0.40710   Biso      1.000     C          0.502616  
         C28       1.0000    0.07210   0.67290   0.42030   Biso      1.000     C          0.518822  
         C29       1.0000    0.61220   0.66812   0.34220   Biso      1.000     C          0.500749  
         C30       1.0000    0.61940   0.64479   0.46300   Biso      1.000     C          0.495058  
         C31       1.0000    0.99960   0.66060   0.85140   Biso      1.000     C          -0.08092  
         C32       1.0000    0.99550   0.66880   0.72310   Biso      1.000     C          -0.203469           
         C33       1.0000    0.93570   0.72060   0.68710   Biso      1.000     C          -0.177307           
         C34       1.0000    0.32980   0.72253   0.71470   Biso      1.000     C          0.516592  
         C35       1.0000    0.80630   0.72450   0.72460   Biso      1.000     C          -0.202258           
         C36       1.0000    0.86920   0.65269   0.00990   Biso      1.000     C          -0.405309           
         C37       1.0000    0.48030   0.99865   0.43440   Biso      1.000     C          0.537866  
         C38       1.0000    0.99540   0.01664   0.94430   Biso      1.000     C          0.540054  
         C39       1.0000    0.70870   0.22286   0.33200   Biso      1.000     C          0.501668  
         C40       1.0000    0.67020   0.27747   0.28530   Biso      1.000     C          0.516592  
         C41       1.0000    0.84880   0.12387   0.09290   Biso      1.000     C          0.502616  
         C42       1.0000    0.92790   0.17290   0.07970   Biso      1.000     C          0.518822  
         C43       1.0000    0.38780   0.16812   0.15780   Biso      1.000     C          0.500749  
         C44       1.0000    0.38060   0.14479   0.03700   Biso      1.000     C          0.495058  
         C45       1.0000    0.81070   0.71488   0.85270   Biso      1.000     C          -0.078982           
         C46       1.0000    0.15120   0.87613   0.90710   Biso      1.000     C          0.502616  
         C47       1.0000    0.51970   0.49865   0.06560   Biso      1.000     C          0.537866  
         C48       1.0000    0.61220   0.83188   0.84220   Biso      1.000     C          0.500749  
         C49       1.0000    0.93570   0.77940   0.18710   Biso      1.000     C          -0.177307           
         C50       1.0000    0.80630   0.77550   0.22460   Biso      1.000     C          -0.202258           
         C51       1.0000    0.81070   0.78512   0.35270   Biso      1.000     C          -0.078982           
         C52       1.0000    0.99550   0.83120   0.22310   Biso      1.000     C          -0.203469           
         C53       1.0000    0.86920   0.84731   0.50990   Biso      1.000     C          -0.405309           
         C54       1.0000    0.07210   0.82710   0.92030   Biso      1.000     C          0.518822  
         C55       1.0000    0.61940   0.85521   0.96300   Biso      1.000     C          0.495058  
         C56       1.0000    0.99960   0.83940   0.35140   Biso      1.000     C          -0.08092  
         Gd1       1.0000    0.36022   0.71329   0.44540   Biso      1.000     Gd          1.961412  
         Gd2       1.0000    0.77483   0.46567   0.96097   Biso      1.000     Gd          2.189955  
         Gd3       1.0000    0.22517   0.96567   0.53903   Biso      1.000     Gd          2.189955  
         Gd4       1.0000    0.63978   0.21329   0.05460   Biso      1.000     Gd          1.961412  
         Gd5       1.0000    0.14721   0.08868   0.13736   Biso      1.000     Gd          2.0222    
         Gd6       1.0000    0.77483   0.03433   0.46097   Biso      1.000     Gd          2.189955  
         Gd7       1.0000    0.36022   0.78671   0.94540   Biso      1.000     Gd          1.961412  
         Gd8       1.0000    0.85279   0.58868   0.36264   Biso      1.000     Gd          2.0222    
         Gd9       1.0000    0.85279   0.91132   0.86264   Biso      1.000     Gd          2.0222    
         Gd10      1.0000    0.63978   0.28671   0.55460   Biso      1.000     Gd          1.961411  
         Gd11      1.0000    0.14721   0.41132   0.63736   Biso      1.000     Gd          2.0222    
         Gd12      1.0000    0.22517   0.53433   0.03903   Biso      1.000     Gd          2.189955  
         H1        1.0000    0.22830   0.25850   0.79380   Biso      1.000     H          0.126726  
         H2        1.0000    0.86120   0.75870   0.39590   Biso      1.000     H          0.122157  
         H3        1.0000    0.72490   0.78370   0.37250   Biso      1.000     H          0.114675  
         H4        1.0000    0.74950   0.69970   0.68210   Biso      1.000     H          0.113669  
         H5        1.0000    0.78520   0.83930   0.52880   Biso      1.000     H          0.179144  
         H6        1.0000    0.77170   0.75850   0.70620   Biso      1.000     H          0.126726  
         H7        1.0000    0.18080   0.36120   0.15680   Biso      1.000     H          0.281013  
         H8        1.0000    0.86120   0.74130   0.89590   Biso      1.000     H          0.122157  
         H9        1.0000    0.72490   0.71630   0.87250   Biso      1.000     H          0.114675  
         H10       1.0000    0.78520   0.66070   0.02880   Biso      1.000     H          0.179144  
         H11       1.0000    0.92910   0.67620   0.05290   Biso      1.000     H          0.18892   
         H12       1.0000    0.92910   0.82380   0.55290   Biso      1.000     H          0.18892   
         H13       1.0000    0.07090   0.17620   0.44710   Biso      1.000     H          0.18892   
         H14       1.0000    0.21480   0.16070   0.47120   Biso      1.000     H          0.179144  
         H15       1.0000    0.27510   0.21630   0.62750   Biso      1.000     H          0.114675  
         H16       1.0000    0.13880   0.24130   0.60410   Biso      1.000     H          0.122157  
         H17       1.0000    0.25050   0.19970   0.81790   Biso      1.000     H          0.113669  
         H18       1.0000    0.07240   0.22420   0.89580   Biso      1.000     H          0.107549  
         H19       1.0000    0.01000   0.24800   0.77820   Biso      1.000     H          0.108997  
         H20       1.0000    0.91850   0.16750   0.79610   Biso      1.000     H          0.138702  
         H21       1.0000    0.05380   0.14160   0.81850   Biso      1.000     H          0.118372  
         H22       1.0000    0.94710   0.18670   0.60690   Biso      1.000     H          0.133022  
         H23       1.0000    0.96300   0.12730   0.62740   Biso      1.000     H          0.086179  
         H24       1.0000    0.81920   0.63880   0.84320   Biso      1.000     H          0.281013  
         H25       1.0000    0.77170   0.74150   0.20620   Biso      1.000     H          0.126726  
         H26       1.0000    0.74950   0.80030   0.18210   Biso      1.000     H          0.113669  
         H27       1.0000    0.18080   0.13880   0.65680   Biso      1.000     H          0.281013  
         H28       1.0000    0.96300   0.37270   0.12740   Biso      1.000     H          0.086179  
         H29       1.0000    0.21480   0.33930   0.97120   Biso      1.000     H          0.179144  
         H30       1.0000    0.94620   0.85840   0.18150   Biso      1.000     H          0.118372  
         H31       1.0000    0.27510   0.28370   0.12750   Biso      1.000     H          0.114675  
         H32       1.0000    0.08150   0.66750   0.70390   Biso      1.000     H          0.138702  
         H33       1.0000    0.92760   0.72420   0.60420   Biso      1.000     H          0.107549  
         H34       1.0000    0.94620   0.64160   0.68150   Biso      1.000     H          0.118372  
         H35       1.0000    0.05290   0.68670   0.89310   Biso      1.000     H          0.133022  
         H36       1.0000    0.03700   0.62730   0.87260   Biso      1.000     H          0.086179  
         H37       1.0000    0.13880   0.25870   0.10410   Biso      1.000     H          0.122157  
         H38       1.0000    0.08150   0.83250   0.20390   Biso      1.000     H          0.138702  
         H39       1.0000    0.22830   0.24150   0.29380   Biso      1.000     H          0.126726  
         H40       1.0000    0.81920   0.86120   0.34320   Biso      1.000     H          0.281013  
         H41       1.0000    0.07090   0.32380   0.94710   Biso      1.000     H          0.18892   
         H42       1.0000    0.94710   0.31330   0.10690   Biso      1.000     H          0.133022  
         H43       1.0000    0.99000   0.74800   0.72180   Biso      1.000     H          0.108997  
         H44       1.0000    0.07240   0.27580   0.39580   Biso      1.000     H          0.107549  
         H45       1.0000    0.03700   0.87270   0.37260   Biso      1.000     H          0.086179  
         H46       1.0000    0.92760   0.77580   0.10420   Biso      1.000     H          0.107549  
         H47       1.0000    0.05380   0.35840   0.31850   Biso      1.000     H          0.118372  
         H48       1.0000    0.05290   0.81330   0.39310   Biso      1.000     H          0.133022  
         H49       1.0000    0.01000   0.25200   0.27820   Biso      1.000     H          0.108997  
         H50       1.0000    0.91850   0.33250   0.29610   Biso      1.000     H          0.138702  
         H51       1.0000    0.25050   0.30030   0.31790   Biso      1.000     H          0.113669  
         H52       1.0000    0.99000   0.75200   0.22180   Biso      1.000     H          0.108997  
         N1        1.0000    0.13180   0.33693   0.11600   Biso      1.000     N          0.045606  
         N2        1.0000    0.13180   0.16307   0.61600   Biso      1.000     N          0.045606  
         N3        1.0000    0.86820   0.83693   0.38400   Biso      1.000     N          0.045606  
         N4        1.0000    0.86820   0.66307   0.88400   Biso      1.000     N          0.045606  
         O1        1.0000    0.84260   0.55055   0.97110   Biso      1.000     O          -0.925381           
         O2        1.0000    0.86030   0.58556   0.17310   Biso      1.000     O          -0.85316  
         O3        1.0000    0.53280   0.65553   0.51940   Biso      1.000     O          -0.566301           
         O4        1.0000    0.86030   0.91444   0.67310   Biso      1.000     O          -0.85316  
         O5        1.0000    0.71380   0.61625   0.49550   Biso      1.000     O          -0.63133  
         O6        1.0000    0.05360   0.91823   0.57100   Biso      1.000     O          -0.942846           
         O7        1.0000    0.05360   0.58177   0.07100   Biso      1.000     O          -0.942846           
         O8        1.0000    0.84260   0.94945   0.47110   Biso      1.000     O          -0.925381           
         O9        1.0000    0.27060   0.62744   0.43220   Biso      1.000     O          -0.571008           
         O10       1.0000    0.69300   0.65288   0.28270   Biso      1.000     O          -0.627485           
         O11       1.0000    0.53280   0.84447   0.01940   Biso      1.000     O          -0.566301           
         O12       1.0000    0.71380   0.88375   0.99550   Biso      1.000     O          -0.63133  
         O13       1.0000    0.52490   0.79983   0.81450   Biso      1.000     O          -0.607151           
         O14       1.0000    0.69300   0.84712   0.78270   Biso      1.000     O          -0.627485           
         O15       1.0000    0.43440   0.50494   0.12650   Biso      1.000     O          -0.590687           
         O16       1.0000    0.63570   0.49021   0.10080   Biso      1.000     O          -0.604718           
         O17       1.0000    0.07830   0.50010   0.64060   Biso      1.000     O          -0.652799           
         O18       1.0000    0.93830   0.55632   0.55040   Biso      1.000     O          -0.606415           
         O19       1.0000    0.29300   0.71499   0.06390   Biso      1.000     O          -0.630311           
         O20       1.0000    0.26390   0.69157   0.24160   Biso      1.000     O          -0.621219           
         O21       1.0000    0.35270   0.80959   0.14190   Biso      1.000     O          -0.591488           
         O22       1.0000    0.33580   0.78500   0.32000   Biso      1.000     O          -0.634214           
         O23       1.0000    0.08970   0.58459   0.37270   Biso      1.000     O          -0.613989           
         O24       1.0000    0.95320   0.66796   0.40810   Biso      1.000     O          -0.620418           
         O25       1.0000    0.13300   0.71366   0.44200   Biso      1.000     O          -0.585053           
         O26       1.0000    0.52490   0.70017   0.31450   Biso      1.000     O          -0.607151           
         O27       1.0000    0.13300   0.78634   0.94200   Biso      1.000     O          -0.585053           
         O28       1.0000    0.04680   0.33204   0.59190   Biso      1.000     O          -0.620418           
         O29       1.0000    0.27060   0.87256   0.93220   Biso      1.000     O          -0.571008           
         O30       1.0000    0.46720   0.15553   0.98060   Biso      1.000     O          -0.566301           
         O31       1.0000    0.94640   0.08177   0.42900   Biso      1.000     O          -0.942846           
         O32       1.0000    0.15740   0.05055   0.52890   Biso      1.000     O          -0.925381           
         O33       1.0000    0.13970   0.08556   0.32690   Biso      1.000     O          -0.85316  
         O34       1.0000    0.13970   0.41444   0.82690   Biso      1.000     O          -0.85316  
         O35       1.0000    0.15740   0.44945   0.02890   Biso      1.000     O          -0.925381           
         O36       1.0000    0.94640   0.41823   0.92900   Biso      1.000     O          -0.942845           
         O37       1.0000    0.46720   0.34447   0.48060   Biso      1.000     O          -0.566301           
         O38       1.0000    0.28620   0.38375   0.50450   Biso      1.000     O          -0.63133  
         O39       1.0000    0.47510   0.29983   0.68550   Biso      1.000     O          -0.607151           
         O40       1.0000    0.30700   0.34712   0.71730   Biso      1.000     O          -0.627485           
         O41       1.0000    0.56560   0.49506   0.87350   Biso      1.000     O          -0.590687           
         O42       1.0000    0.36430   0.50979   0.89920   Biso      1.000     O          -0.604718           
         O43       1.0000    0.92170   0.49990   0.35940   Biso      1.000     O          -0.652799           
         O44       1.0000    0.06170   0.44368   0.44960   Biso      1.000     O          -0.606415           
         O45       1.0000    0.70700   0.28501   0.93610   Biso      1.000     O          -0.630311           
         O46       1.0000    0.73610   0.30843   0.75840   Biso      1.000     O          -0.621219           
         O47       1.0000    0.64730   0.19041   0.85810   Biso      1.000     O          -0.591488           
         O48       1.0000    0.66420   0.21500   0.68000   Biso      1.000     O          -0.634214           
         O49       1.0000    0.91030   0.41541   0.62730   Biso      1.000     O          -0.613989           
         O50       1.0000    0.72940   0.37256   0.56780   Biso      1.000     O          -0.571008           
         O51       1.0000    0.28620   0.11625   0.00450   Biso      1.000     O          -0.63133  
         O52       1.0000    0.95320   0.83204   0.90810   Biso      1.000     O          -0.620418           
         O53       1.0000    0.47510   0.20017   0.18550   Biso      1.000     O          -0.607151           
         O54       1.0000    0.86700   0.21366   0.05800   Biso      1.000     O          -0.585053           
         O55       1.0000    0.08970   0.91541   0.87270   Biso      1.000     O          -0.613989           
         O56       1.0000    0.33580   0.71500   0.82000   Biso      1.000     O          -0.634214           
         O57       1.0000    0.35270   0.69041   0.64190   Biso      1.000     O          -0.591488           
         O58       1.0000    0.26390   0.80843   0.74160   Biso      1.000     O          -0.621219           
         O59       1.0000    0.29300   0.78501   0.56390   Biso      1.000     O          -0.630311           
         O60       1.0000    0.93830   0.94368   0.05040   Biso      1.000     O          -0.606415           
         O61       1.0000    0.07830   0.99990   0.14060   Biso      1.000     O          -0.652799           
         O62       1.0000    0.63570   0.00979   0.60080   Biso      1.000     O          -0.604718           
         O63       1.0000    0.86700   0.28634   0.55800   Biso      1.000     O          -0.585053           
         O64       1.0000    0.30700   0.15288   0.21730   Biso      1.000     O          -0.627485           
         O65       1.0000    0.43440   0.99506   0.62650   Biso      1.000     O          -0.590687           
         O66       1.0000    0.92170   0.00010   0.85940   Biso      1.000     O          -0.652799           
         O67       1.0000    0.06170   0.05632   0.94960   Biso      1.000     O          -0.606415           
         O68       1.0000    0.70700   0.21499   0.43610   Biso      1.000     O          -0.630311           
         O69       1.0000    0.73610   0.19157   0.25840   Biso      1.000     O          -0.621219           
         O70       1.0000    0.64730   0.30959   0.35810   Biso      1.000     O          -0.591488           
         O71       1.0000    0.66420   0.28500   0.18000   Biso      1.000     O          -0.634214           
         O72       1.0000    0.91030   0.08459   0.12730   Biso      1.000     O          -0.613989           
         O73       1.0000    0.72940   0.12744   0.06780   Biso      1.000     O          -0.571008           
         O74       1.0000    0.04680   0.16796   0.09190   Biso      1.000     O          -0.620418           
         O75       1.0000    0.56560   0.00494   0.37350   Biso      1.000     O          -0.590687           
         O76       1.0000    0.36430   0.99021   0.39920   Biso      1.000     O          -0.604718           
         P1        1.0000    0.08939   0.41279   0.93997   Biso      1.000     P          1.472498  
         P2        1.0000    0.08939   0.08721   0.43997   Biso      1.000     P          1.472498  
         P3        1.0000    0.91061   0.58721   0.06003   Biso      1.000     P          1.472498  
         P4        1.0000    0.91061   0.91279   0.56003   Biso      1.000     P          1.472498 