
##########################################################################
#               Crystallographic Information Format file
#               Produced by PyCifRW module
#
#  This is a CIF file.  CIF has been adopted by the International
#  Union of Crystallography as the standard for data archiving and
#  transmission.
#
#  For information on this file format, follow the CIF links at
#  http://www.iucr.org
##########################################################################

data_image0

_cell_length_a                          7.7563
_cell_length_b                          9.6938
_cell_length_c                          9.6938
_cell_angle_alpha                       114.1
_cell_angle_beta                        99.3055
_cell_angle_gamma                       80.6945
_symmetry_space_group_name_H-M          'P 1'
_symmetry_int_tables_number             1
loop_
  _symmetry_equiv_pos_as_xyz
         'x, y, z' 
loop_
  _atom_site_label
  _atom_site_occupancy
  _atom_site_fract_x
  _atom_site_fract_y
  _atom_site_fract_z
  _atom_site_thermal_displace_type
  _atom_site_B_iso_or_equiv
  _atom_site_type_symbol
  _atom_site_charge
         C1        1.0000    0.79630   0.67760   0.29460   Biso      1.000     C          0.5886520000000001  
         C2        1.0000    0.44730   0.34860   0.74840   Biso      1.000     C          0.09575   
         C3        1.0000    0.35720   0.35010   0.61090   Biso      1.000     C          -0.191332           
         C4        1.0000    0.98190   0.40850   0.24790   Biso      1.000     C          0.05801   
         C5        1.0000    0.92060   0.29360   0.09240   Biso      1.000     C          0.5558350000000001  
         C6        1.0000    0.93220   0.56350   0.33070   Biso      1.000     C          -0.031152999999999997         
         C7        1.0000    0.25070   0.48350   0.61350   Biso      1.000     C          0.048897  
         C8        1.0000    0.63880   0.52440   0.50960   Biso      1.000     C          0.276425  
         C9        1.0000    0.75070   0.38650   0.51650   Biso      1.000     C          0.049955  
         C10       1.0000    0.74350   0.24700   0.39040   Biso      1.000     C          -0.175189           
         C11       1.0000    0.83830   0.11840   0.40340   Biso      1.000     C          0.103958  
         C12       1.0000    0.94730   0.25160   0.65140   Biso      1.000     C          0.09615800000000001           
         C13       1.0000    0.85720   0.38910   0.64990   Biso      1.000     C          -0.190834           
         C14       1.0000    0.48190   0.75210   0.59150   Biso      1.000     C          0.057575  
         C15       1.0000    0.42060   0.90760   0.70640   Biso      1.000     C          0.5558810000000001  
         C16       1.0000    0.43220   0.66930   0.43650   Biso      1.000     C          -0.029731           
         C17       1.0000    0.29630   0.70540   0.32240   Biso      1.000     C          0.588119  
         C18       1.0000    0.13880   0.49040   0.47560   Biso      1.000     C          0.27634699999999995           
         C19       1.0000    0.33830   0.59660   0.88160   Biso      1.000     C          0.10184299999999999           
         C20       1.0000    0.24350   0.60960   0.75300   Biso      1.000     C          -0.174618           
         H1        1.0000    0.16550   0.27540   0.32120   Biso      1.000     H          0.330129  
         H2        1.0000    0.17620   0.69990   0.75870   Biso      1.000     H          0.137255  
         H3        1.0000    0.33400   0.68120   0.97300   Biso      1.000     H          0.114304  
         H4        1.0000    0.51740   0.26060   0.74640   Biso      1.000     H          0.11131400000000001           
         H5        1.0000    0.36760   0.26530   0.52030   Biso      1.000     H          0.139191  
         H6        1.0000    0.66550   0.67880   0.72460   Biso      1.000     H          0.33049   
         H7        1.0000    0.67620   0.24130   0.30010   Biso      1.000     H          0.13714   
         H8        1.0000    0.83400   0.02700   0.31880   Biso      1.000     H          0.114596  
         H9        1.0000    0.01740   0.25360   0.73940   Biso      1.000     H          0.11098   
         H10       1.0000    0.86760   0.47970   0.73470   Biso      1.000     H          0.139345  
         Mn1       1.0000    0.52501   0.44554   0.11214   Biso      1.000     Mn          0.827463  
         Mn2       1.0000    0.02501   0.88786   0.55446   Biso      1.000     Mn          0.817788  
         N1        1.0000    0.53450   0.52800   0.38700   Biso      1.000     N          -0.37388299999999997          
         N2        1.0000    0.61120   0.65800   0.63480   Biso      1.000     N          -0.303431           
         N3        1.0000    0.93740   0.11710   0.53210   Biso      1.000     N          -0.20759499999999997          
         N4        1.0000    0.03450   0.61300   0.47200   Biso      1.000     N          -0.374025           
         N5        1.0000    0.11120   0.36520   0.34200   Biso      1.000     N          -0.303952           
         N6        1.0000    0.43740   0.46790   0.88290   Biso      1.000     N          -0.20780300000000002          
         O1        1.0000    0.29750   0.61120   0.18700   Biso      1.000     O          -0.501795           
         O2        1.0000    0.19120   0.82620   0.36780   Biso      1.000     O          -0.531556           
         O3        1.0000    0.25910   0.95410   0.70290   Biso      1.000     O          -0.523149           
         O4        1.0000    0.54050   0.97830   0.80210   Biso      1.000     O          -0.540034           
         O5        1.0000    0.79750   0.81300   0.38880   Biso      1.000     O          -0.502568           
         O6        1.0000    0.69120   0.63220   0.17380   Biso      1.000     O          -0.530227           
         O7        1.0000    0.75910   0.29710   0.04590   Biso      1.000     O          -0.528464           
         O8        1.0000    0.04050   0.19790   0.02170   Biso      1.000     O          -0.542062 