
##########################################################################
#               Crystallographic Information Format file
#               Produced by PyCifRW module
#
#  This is a CIF file.  CIF has been adopted by the International
#  Union of Crystallography as the standard for data archiving and
#  transmission.
#
#  For information on this file format, follow the CIF links at
#  http://www.iucr.org
##########################################################################

data_image0

_cell_length_a                          9.8401
_cell_length_b                          11.0617
_cell_length_c                          13.5307
_cell_angle_alpha                       66.181
_cell_angle_beta                        85.823
_cell_angle_gamma                       69.89
_symmetry_space_group_name_H-M          'P 1'
_symmetry_int_tables_number             1
loop_
  _symmetry_equiv_pos_as_xyz
         'x, y, z' 
loop_
  _atom_site_label
  _atom_site_occupancy
  _atom_site_fract_x
  _atom_site_fract_y
  _atom_site_fract_z
  _atom_site_thermal_displace_type
  _atom_site_B_iso_or_equiv
  _atom_site_type_symbol
  _atom_site_charge
         C1        1.0000    0.59180   0.52250   0.59730   Biso      1.000     C          -0.110512           
         C2        1.0000    0.00510   0.34920   0.41720   Biso      1.000     C          0.088227  
         C3        1.0000    0.88220   0.58440   0.32910   Biso      1.000     C          0.103818  
         C4        1.0000    0.78840   0.57890   0.41230   Biso      1.000     C          -0.194739           
         C5        1.0000    0.80940   0.45050   0.50090   Biso      1.000     C          0.169921  
         C6        1.0000    0.71470   0.43310   0.59320   Biso      1.000     C          -0.141941           
         C7        1.0000    0.42770   0.36370   0.85870   Biso      1.000     C          0.10765   
         C8        1.0000    0.52160   0.37360   0.77670   Biso      1.000     C          -0.18126  
         C9        1.0000    0.49620   0.50150   0.68800   Biso      1.000     C          0.160873  
         C10       1.0000    0.92050   0.33600   0.50190   Biso      1.000     C          -0.196861           
         C11       1.0000    0.37490   0.61290   0.68570   Biso      1.000     C          -0.207623           
         C12       1.0000    0.22940   0.81370   0.00430   Biso      1.000     C          0.002972  
         C13       1.0000    0.17970   0.91750   0.04320   Biso      1.000     C          -0.171536           
         C14       1.0000    0.21500   0.04100   0.99110   Biso      1.000     C          0.009568  
         C15       1.0000    0.30350   0.05250   0.90630   Biso      1.000     C          -0.24816  
         C16       1.0000    0.35850   0.94350   0.87170   Biso      1.000     C          0.269239  
         C17       1.0000    0.31900   0.82410   0.92000   Biso      1.000     C          -0.262095           
         C18       1.0000    0.49740   0.87020   0.73840   Biso      1.000     C          -0.1604   
         C19       1.0000    0.62870   0.74290   0.79940   Biso      1.000     C          0.637801  
         C20       1.0000    0.19100   0.68160   0.05460   Biso      1.000     C          0.607085  
         C21       1.0000    0.15520   0.16430   0.02560   Biso      1.000     C          0.60161   
         C22       1.0000    0.80900   0.31840   0.94540   Biso      1.000     C          0.607085  
         C23       1.0000    0.82030   0.08250   0.95680   Biso      1.000     C          -0.171538           
         C24       1.0000    0.07950   0.66400   0.49810   Biso      1.000     C          -0.196885           
         C25       1.0000    0.99490   0.65080   0.58280   Biso      1.000     C          0.088242  
         C26       1.0000    0.11780   0.41560   0.67090   Biso      1.000     C          0.103818  
         C27       1.0000    0.21160   0.42110   0.58770   Biso      1.000     C          -0.194741           
         C28       1.0000    0.19060   0.54950   0.49910   Biso      1.000     C          0.169938  
         C29       1.0000    0.28530   0.56690   0.40680   Biso      1.000     C          -0.141988           
         C30       1.0000    0.40820   0.47750   0.40270   Biso      1.000     C          -0.110465           
         C31       1.0000    0.57230   0.63630   0.14130   Biso      1.000     C          0.10765   
         C32       1.0000    0.47840   0.62640   0.22330   Biso      1.000     C          -0.18126  
         C33       1.0000    0.77060   0.18630   0.99570   Biso      1.000     C          0.002973  
         C34       1.0000    0.50380   0.49850   0.31200   Biso      1.000     C          0.160869  
         C35       1.0000    0.71370   0.40540   0.22920   Biso      1.000     C          0.084198  
         C36       1.0000    0.84480   0.83570   0.97440   Biso      1.000     C          0.601609  
         C37       1.0000    0.37130   0.25710   0.20060   Biso      1.000     C          0.6378    
         C38       1.0000    0.50260   0.12980   0.26160   Biso      1.000     C          -0.160399           
         C39       1.0000    0.68100   0.17590   0.08000   Biso      1.000     C          -0.262097           
         C40       1.0000    0.64150   0.05650   0.12830   Biso      1.000     C          0.26924   
         C41       1.0000    0.69650   0.94750   0.09370   Biso      1.000     C          -0.24816  
         C42       1.0000    0.78500   0.95900   0.00890   Biso      1.000     C          0.009569  
         C43       1.0000    0.62510   0.38710   0.31430   Biso      1.000     C          -0.207623           
         C44       1.0000    0.28630   0.59460   0.77080   Biso      1.000     C          0.084198  
         H1        1.0000    0.02570   0.31998   0.14293   Biso      1.000     H          0.377324  
         H2        1.0000    0.97430   0.68002   0.85707   Biso      1.000     H          0.377324  
         H3        1.0000    0.91940   0.73330   0.58080   Biso      1.000     H          0.094977  
         H4        1.0000    0.12280   0.90630   0.10390   Biso      1.000     H          0.121192  
         H5        1.0000    0.32710   0.13560   0.87130   Biso      1.000     H          0.127511  
         H6        1.0000    0.06110   0.75260   0.43870   Biso      1.000     H          0.141778  
         H7        1.0000    0.41810   0.83720   0.73200   Biso      1.000     H          0.101992  
         H8        1.0000    0.52260   0.91900   0.66410   Biso      1.000     H          0.118115  
         H9        1.0000    0.20430   0.67310   0.76790   Biso      1.000     H          0.095493  
         H10       1.0000    0.35230   0.70170   0.62590   Biso      1.000     H          0.123917  
         H11       1.0000    0.60280   0.29360   0.78110   Biso      1.000     H          0.133685  
         H12       1.0000    0.44720   0.27600   0.91920   Biso      1.000     H          0.104532  
         H13       1.0000    0.55930   0.61030   0.53640   Biso      1.000     H          0.109506  
         H14       1.0000    0.74860   0.34690   0.65540   Biso      1.000     H          0.12552   
         H15       1.0000    0.71140   0.66140   0.40870   Biso      1.000     H          0.1365    
         H16       1.0000    0.86890   0.67190   0.26940   Biso      1.000     H          0.108437  
         H17       1.0000    0.08060   0.26670   0.41920   Biso      1.000     H          0.094978  
         H18       1.0000    0.35340   0.75060   0.89520   Biso      1.000     H          0.12686   
         H19       1.0000    0.87720   0.09370   0.89610   Biso      1.000     H          0.121192  
         H20       1.0000    0.67290   0.86440   0.12870   Biso      1.000     H          0.127511  
         H21       1.0000    0.64660   0.24940   0.10480   Biso      1.000     H          0.12686   
         H22       1.0000    0.58190   0.16280   0.26800   Biso      1.000     H          0.101992  
         H23       1.0000    0.47740   0.08100   0.33590   Biso      1.000     H          0.118115  
         H24       1.0000    0.79570   0.32690   0.23210   Biso      1.000     H          0.095493  
         H25       1.0000    0.64770   0.29830   0.37410   Biso      1.000     H          0.123917  
         H26       1.0000    0.39720   0.70640   0.21890   Biso      1.000     H          0.133685  
         H27       1.0000    0.55280   0.72400   0.08080   Biso      1.000     H          0.104531  
         H28       1.0000    0.44070   0.38970   0.46360   Biso      1.000     H          0.109503  
         H29       1.0000    0.25140   0.65310   0.34460   Biso      1.000     H          0.125523  
         H30       1.0000    0.28860   0.33860   0.59130   Biso      1.000     H          0.1365    
         H31       1.0000    0.13110   0.32810   0.73060   Biso      1.000     H          0.108437  
         H32       1.0000    0.93890   0.24740   0.56130   Biso      1.000     H          0.141776  
         N1        1.0000    0.00960   0.53090   0.66870   Biso      1.000     N          -0.228447           
         N2        1.0000    0.99040   0.46910   0.33130   Biso      1.000     N          -0.228446           
         N3        1.0000    0.69040   0.52670   0.14380   Biso      1.000     N          -0.204713           
         N4        1.0000    0.30960   0.47330   0.85620   Biso      1.000     N          -0.204713           
         O1        1.0000    0.02570   0.41880   0.11030   Biso      1.000     O          -0.855902           
         O2        1.0000    0.34570   0.29280   0.10380   Biso      1.000     O          -0.519768           
         O3        1.0000    0.55470   0.03140   0.21320   Biso      1.000     O          -0.198875           
         O4        1.0000    0.78890   0.39180   0.99840   Biso      1.000     O          -0.563831           
         O5        1.0000    0.85790   0.34590   0.85250   Biso      1.000     O          -0.550704           
         O6        1.0000    0.10930   0.14310   0.11750   Biso      1.000     O          -0.5889   
         O7        1.0000    0.29850   0.31790   0.26100   Biso      1.000     O          -0.608828           
         O8        1.0000    0.15930   0.27930   0.95640   Biso      1.000     O          -0.599886           
         O9        1.0000    0.65430   0.70720   0.89620   Biso      1.000     O          -0.519768           
         O10       1.0000    0.44530   0.96860   0.78680   Biso      1.000     O          -0.198875           
         O11       1.0000    0.21110   0.60820   0.00160   Biso      1.000     O          -0.563831           
         O12       1.0000    0.14210   0.65410   0.14750   Biso      1.000     O          -0.550704           
         O13       1.0000    0.89070   0.85690   0.88250   Biso      1.000     O          -0.588899           
         O14       1.0000    0.97430   0.58120   0.88970   Biso      1.000     O          -0.855902           
         O15       1.0000    0.70150   0.68210   0.73900   Biso      1.000     O          -0.608827           
         O16       1.0000    0.84070   0.72070   0.04360   Biso      1.000     O          -0.599886           
         Zn1       1.0000    0.16858   0.44590   0.98252   Biso      1.000     Zn          0.944032  
         Zn2       1.0000    0.88866   0.52705   0.79580   Biso      1.000     Zn          0.860646  
         Zn3       1.0000    0.83142   0.55410   0.01748   Biso      1.000     Zn          0.944032  
         Zn4       1.0000    0.11134   0.47295   0.20420   Biso      1.000     Zn          0.860649 