
##########################################################################
#               Crystallographic Information Format file
#               Produced by PyCifRW module
#
#  This is a CIF file.  CIF has been adopted by the International
#  Union of Crystallography as the standard for data archiving and
#  transmission.
#
#  For information on this file format, follow the CIF links at
#  http://www.iucr.org
##########################################################################

data_image0

_cell_length_a                          7.72
_cell_length_b                          21.25
_cell_length_c                          21.25
_cell_angle_alpha                       120
_cell_angle_beta                        90
_cell_angle_gamma                       90
_symmetry_space_group_name_H-M          'P 1'
_symmetry_int_tables_number             1
loop_
  _symmetry_equiv_pos_as_xyz
         'x, y, z' 
loop_
  _atom_site_label
  _atom_site_occupancy
  _atom_site_fract_x
  _atom_site_fract_y
  _atom_site_fract_z
  _atom_site_thermal_displace_type
  _atom_site_B_iso_or_equiv
  _atom_site_type_symbol
  _atom_site_charge
         C1        1.0000    0.17673   0.58880   0.91400   Biso      1.000     C          -0.140877           
         C2        1.0000    0.82327   0.08600   0.41120   Biso      1.000     C          -0.140877           
         C3        1.0000    0.74797   0.13830   0.47540   Biso      1.000     C          -0.087985           
         C4        1.0000    0.57437   0.08330   0.34450   Biso      1.000     C          -0.149265           
         C5        1.0000    0.50017   0.13650   0.40920   Biso      1.000     C          -0.084836           
         C6        1.0000    0.58207   0.16280   0.47350   Biso      1.000     C          -0.036757           
         C7        1.0000    0.49497   0.21960   0.54260   Biso      1.000     C          0.61935   
         C8        1.0000    0.37443   0.78750   0.74470   Biso      1.000     C          0.689031  
         C9        1.0000    0.40713   0.65470   0.71200   Biso      1.000     C          0.099454  
         C10       1.0000    0.48993   0.58880   0.67480   Biso      1.000     C          -0.140935           
         C11       1.0000    0.41463   0.52460   0.66290   Biso      1.000     C          -0.088078           
         C12       1.0000    0.24103   0.65550   0.73880   Biso      1.000     C          -0.149356           
         C13       1.0000    0.16683   0.59080   0.72730   Biso      1.000     C          -0.0849   
         C14       1.0000    0.24873   0.52650   0.68930   Biso      1.000     C          -0.036534           
         C15       1.0000    0.16163   0.45740   0.67700   Biso      1.000     C          0.619354  
         C16       1.0000    0.74047   0.05730   0.34530   Biso      1.000     C          0.099394  
         C17       1.0000    0.04110   0.25530   0.04280   Biso      1.000     C          0.688866  
         C18       1.0000    0.15660   0.32520   0.91400   Biso      1.000     C          -0.140922           
         C19       1.0000    0.08130   0.33710   0.86170   Biso      1.000     C          -0.088019           
         C20       1.0000    0.90770   0.26120   0.91670   Biso      1.000     C          -0.14933  
         C21       1.0000    0.83350   0.27270   0.86350   Biso      1.000     C          -0.084766           
         C22       1.0000    0.91540   0.31070   0.83720   Biso      1.000     C          -0.036715           
         C23       1.0000    0.82830   0.32300   0.78040   Biso      1.000     C          0.619371  
         C24       1.0000    0.70777   0.04280   0.78750   Biso      1.000     C          0.688965  
         C25       1.0000    0.74047   0.94270   0.65470   Biso      1.000     C          0.09939   
         C26       1.0000    0.82327   0.91400   0.58880   Biso      1.000     C          -0.140873           
         C27       1.0000    0.74797   0.86170   0.52460   Biso      1.000     C          -0.087985           
         C28       1.0000    0.57437   0.91670   0.65550   Biso      1.000     C          -0.149265           
         C29       1.0000    0.50017   0.86350   0.59080   Biso      1.000     C          -0.084836           
         C30       1.0000    0.58207   0.83720   0.52650   Biso      1.000     C          -0.036757           
         C31       1.0000    0.49497   0.78040   0.45740   Biso      1.000     C          0.61935   
         C32       1.0000    0.07380   0.28800   0.94270   Biso      1.000     C          0.099413  
         C33       1.0000    0.37443   0.21250   0.25530   Biso      1.000     C          0.689031  
         C34       1.0000    0.70777   0.95720   0.21250   Biso      1.000     C          0.688965  
         C35       1.0000    0.41793   0.52650   0.83720   Biso      1.000     C          -0.036783           
         C36       1.0000    0.29223   0.21250   0.95720   Biso      1.000     C          0.688965  
         C37       1.0000    0.25953   0.34530   0.05730   Biso      1.000     C          0.09939   
         C38       1.0000    0.17673   0.41120   0.08600   Biso      1.000     C          -0.140873           
         C39       1.0000    0.25203   0.47540   0.13830   Biso      1.000     C          -0.087983           
         C40       1.0000    0.42563   0.34450   0.08330   Biso      1.000     C          -0.149265           
         C41       1.0000    0.49983   0.40920   0.13650   Biso      1.000     C          -0.084833           
         C42       1.0000    0.41793   0.47350   0.16280   Biso      1.000     C          -0.036762           
         C43       1.0000    0.50503   0.54260   0.21960   Biso      1.000     C          0.619352  
         C44       1.0000    0.62557   0.25530   0.21250   Biso      1.000     C          0.689031  
         C45       1.0000    0.59287   0.28800   0.34530   Biso      1.000     C          0.099454  
         C46       1.0000    0.51007   0.32520   0.41120   Biso      1.000     C          -0.140935           
         C47       1.0000    0.58537   0.33710   0.47540   Biso      1.000     C          -0.088078           
         C48       1.0000    0.75897   0.26120   0.34450   Biso      1.000     C          -0.149356           
         C49       1.0000    0.83317   0.27270   0.40920   Biso      1.000     C          -0.0849   
         C50       1.0000    0.50503   0.45740   0.78040   Biso      1.000     C          0.619354  
         C51       1.0000    0.75127   0.31070   0.47350   Biso      1.000     C          -0.036534           
         C52       1.0000    0.95890   0.95720   0.74470   Biso      1.000     C          0.688866  
         C53       1.0000    0.92620   0.05730   0.71200   Biso      1.000     C          0.099409  
         C54       1.0000    0.84340   0.08600   0.67480   Biso      1.000     C          -0.140917           
         C55       1.0000    0.91870   0.13830   0.66290   Biso      1.000     C          -0.088019           
         C56       1.0000    0.09230   0.08330   0.73880   Biso      1.000     C          -0.14933  
         C57       1.0000    0.16650   0.13650   0.72730   Biso      1.000     C          -0.084766           
         C58       1.0000    0.08460   0.16280   0.68930   Biso      1.000     C          -0.036715           
         C59       1.0000    0.17170   0.21960   0.67700   Biso      1.000     C          0.619371  
         C60       1.0000    0.29223   0.78750   0.04280   Biso      1.000     C          0.688965  
         C61       1.0000    0.25953   0.65470   0.94270   Biso      1.000     C          0.099395  
         C62       1.0000    0.16650   0.86350   0.27270   Biso      1.000     C          -0.084766           
         C63       1.0000    0.25203   0.52460   0.86170   Biso      1.000     C          -0.08798  
         C64       1.0000    0.42563   0.65550   0.91670   Biso      1.000     C          -0.149268           
         C65       1.0000    0.49983   0.59080   0.86350   Biso      1.000     C          -0.084813           
         C66       1.0000    0.83837   0.32300   0.54260   Biso      1.000     C          0.619353  
         C67       1.0000    0.40713   0.34530   0.28800   Biso      1.000     C          0.099454  
         C68       1.0000    0.48993   0.41120   0.32520   Biso      1.000     C          -0.140935           
         C69       1.0000    0.41463   0.47540   0.33710   Biso      1.000     C          -0.088078           
         C70       1.0000    0.75127   0.68930   0.52650   Biso      1.000     C          -0.036555           
         C71       1.0000    0.83317   0.72730   0.59080   Biso      1.000     C          -0.084879           
         C72       1.0000    0.75897   0.73880   0.65550   Biso      1.000     C          -0.149359           
         C73       1.0000    0.58537   0.66290   0.52460   Biso      1.000     C          -0.088075           
         C74       1.0000    0.51007   0.67480   0.58880   Biso      1.000     C          -0.140939           
         C75       1.0000    0.59287   0.71200   0.65470   Biso      1.000     C          0.099458  
         C76       1.0000    0.83837   0.67700   0.45740   Biso      1.000     C          0.619355  
         C77       1.0000    0.62557   0.74470   0.78750   Biso      1.000     C          0.689031  
         C78       1.0000    0.50000   0.27690   0.27690   Biso      1.000     C          -0.300817           
         C79       1.0000    0.83333   0.00000   0.72310   Biso      1.000     C          -0.300722           
         C80       1.0000    0.16667   0.27690   0.00000   Biso      1.000     C          -0.300723           
         C81       1.0000    0.50000   0.72310   0.72310   Biso      1.000     C          -0.300817           
         C82       1.0000    0.83333   0.00000   0.27690   Biso      1.000     C          -0.300723           
         C83       1.0000    0.17170   0.78040   0.32300   Biso      1.000     C          0.619371  
         C84       1.0000    0.16667   0.72310   0.00000   Biso      1.000     C          -0.300723           
         C85       1.0000    0.95890   0.04280   0.25530   Biso      1.000     C          0.688866  
         C86       1.0000    0.08460   0.83720   0.31070   Biso      1.000     C          -0.036715           
         C87       1.0000    0.84340   0.91400   0.32520   Biso      1.000     C          -0.140922           
         C88       1.0000    0.92620   0.94270   0.28800   Biso      1.000     C          0.099413  
         C89       1.0000    0.16683   0.40920   0.27270   Biso      1.000     C          -0.0849   
         C90       1.0000    0.24873   0.47350   0.31070   Biso      1.000     C          -0.036534           
         C91       1.0000    0.16163   0.54260   0.32300   Biso      1.000     C          0.619353  
         C92       1.0000    0.04110   0.74470   0.95720   Biso      1.000     C          0.688866  
         C93       1.0000    0.07380   0.71200   0.05730   Biso      1.000     C          0.099409  
         C94       1.0000    0.15660   0.67480   0.08600   Biso      1.000     C          -0.140917           
         C95       1.0000    0.24103   0.34450   0.26120   Biso      1.000     C          -0.149356           
         C96       1.0000    0.90770   0.73880   0.08330   Biso      1.000     C          -0.149329           
         C97       1.0000    0.83350   0.72730   0.13650   Biso      1.000     C          -0.084766           
         C98       1.0000    0.91540   0.68930   0.16280   Biso      1.000     C          -0.036715           
         C99       1.0000    0.82830   0.67700   0.21960   Biso      1.000     C          0.619371  
         C100      1.0000    0.09230   0.91670   0.26120   Biso      1.000     C          -0.14933  
         C101      1.0000    0.91870   0.86170   0.33710   Biso      1.000     C          -0.088019           
         C102      1.0000    0.08130   0.66290   0.13830   Biso      1.000     C          -0.088019           
         F1        1.0000    0.36363   0.81300   0.00290   Biso      1.000     F          -0.201842           
         F2        1.0000    0.87750   0.90240   0.74650   Biso      1.000     F          -0.20572  
         F3        1.0000    0.08790   0.92850   0.69770   Biso      1.000     F          -0.190694           
         F4        1.0000    0.03030   0.99710   0.81010   Biso      1.000     F          -0.201832           
         F5        1.0000    0.54417   0.25350   0.15590   Biso      1.000     F          -0.205762           
         F6        1.0000    0.75457   0.30230   0.23080   Biso      1.000     F          -0.190736           
         F7        1.0000    0.42123   0.23080   0.92850   Biso      1.000     F          -0.190731           
         F8        1.0000    0.21083   0.15590   0.90240   Biso      1.000     F          -0.205742           
         F9        1.0000    0.36363   0.18700   0.99710   Biso      1.000     F          -0.201843           
         F10       1.0000    0.87750   0.09760   0.25350   Biso      1.000     F          -0.20572  
         F11       1.0000    0.08790   0.07150   0.30230   Biso      1.000     F          -0.190694           
         F12       1.0000    0.03030   0.00290   0.18990   Biso      1.000     F          -0.201832           
         F13       1.0000    0.42123   0.76920   0.07150   Biso      1.000     F          -0.190731           
         F14       1.0000    0.54417   0.74650   0.84410   Biso      1.000     F          -0.205763           
         F15       1.0000    0.69697   0.18990   0.18700   Biso      1.000     F          -0.201867           
         F16       1.0000    0.21083   0.84410   0.09760   Biso      1.000     F          -0.205742           
         F17       1.0000    0.91210   0.30230   0.07150   Biso      1.000     F          -0.190694           
         F18       1.0000    0.57877   0.92850   0.23080   Biso      1.000     F          -0.190731           
         F19       1.0000    0.12250   0.74650   0.90240   Biso      1.000     F          -0.20572  
         F20       1.0000    0.96970   0.81010   0.99710   Biso      1.000     F          -0.201832           
         F21       1.0000    0.45583   0.15590   0.25350   Biso      1.000     F          -0.205762           
         F22       1.0000    0.24543   0.23080   0.30230   Biso      1.000     F          -0.190736           
         F23       1.0000    0.30303   0.18700   0.18990   Biso      1.000     F          -0.201867           
         F24       1.0000    0.78917   0.09760   0.84410   Biso      1.000     F          -0.205742           
         F25       1.0000    0.63637   0.99710   0.18700   Biso      1.000     F          -0.201843           
         F26       1.0000    0.57877   0.07150   0.76920   Biso      1.000     F          -0.190731           
         F27       1.0000    0.12250   0.25350   0.09760   Biso      1.000     F          -0.20572  
         F28       1.0000    0.96970   0.18990   0.00290   Biso      1.000     F          -0.201832           
         F29       1.0000    0.45583   0.84410   0.74650   Biso      1.000     F          -0.205762           
         F30       1.0000    0.24543   0.76920   0.69770   Biso      1.000     F          -0.190736           
         F31       1.0000    0.30303   0.81300   0.81010   Biso      1.000     F          -0.201867           
         F32       1.0000    0.78917   0.90240   0.15590   Biso      1.000     F          -0.205742           
         F33       1.0000    0.63637   0.00290   0.81300   Biso      1.000     F          -0.201843           
         F34       1.0000    0.91210   0.69770   0.92850   Biso      1.000     F          -0.190694           
         F35       1.0000    0.69697   0.81010   0.81300   Biso      1.000     F          -0.201867           
         F36       1.0000    0.75457   0.69770   0.76920   Biso      1.000     F          -0.190736           
         H1        1.0000    0.39927   0.65690   0.58730   Biso      1.000     H          0.118232  
         H2        1.0000    0.60073   0.41270   0.34310   Biso      1.000     H          0.118231  
         H3        1.0000    0.39107   0.84570   0.59210   Biso      1.000     H          0.118229  
         H4        1.0000    0.51377   0.93500   0.69900   Biso      1.000     H          0.113561  
         H5        1.0000    0.80747   0.84320   0.48080   Biso      1.000     H          0.121303  
         H6        1.0000    0.93407   0.93040   0.58730   Biso      1.000     H          0.118185  
         H7        1.0000    0.72440   0.25360   0.84570   Biso      1.000     H          0.118204  
         H8        1.0000    0.84710   0.23600   0.93500   Biso      1.000     H          0.113563  
         H9        1.0000    0.14080   0.36240   0.84320   Biso      1.000     H          0.12133   
         H10       1.0000    0.26740   0.34310   0.93040   Biso      1.000     H          0.118206  
         H11       1.0000    0.05773   0.59210   0.74640   Biso      1.000     H          0.118283  
         H12       1.0000    0.18043   0.69900   0.76400   Biso      1.000     H          0.11355   
         H13       1.0000    0.47413   0.48080   0.63760   Biso      1.000     H          0.121309  
         H14       1.0000    0.60073   0.58730   0.65690   Biso      1.000     H          0.118232  
         H15       1.0000    0.39107   0.15430   0.40790   Biso      1.000     H          0.118229  
         H16       1.0000    0.51377   0.06500   0.30100   Biso      1.000     H          0.113561  
         H17       1.0000    0.80747   0.15680   0.51920   Biso      1.000     H          0.121303  
         H18       1.0000    0.27560   0.15430   0.74640   Biso      1.000     H          0.118204  
         H19       1.0000    0.06593   0.58730   0.93040   Biso      1.000     H          0.118185  
         H20       1.0000    0.19253   0.48080   0.84320   Biso      1.000     H          0.121302  
         H21       1.0000    0.48623   0.69900   0.93500   Biso      1.000     H          0.113561  
         H22       1.0000    0.47413   0.51920   0.36240   Biso      1.000     H          0.121309  
         H23       1.0000    0.60893   0.59210   0.84570   Biso      1.000     H          0.118227  
         H24       1.0000    0.18043   0.30100   0.23600   Biso      1.000     H          0.11355   
         H25       1.0000    0.26740   0.65690   0.06960   Biso      1.000     H          0.118205  
         H26       1.0000    0.52587   0.63760   0.48080   Biso      1.000     H          0.121309  
         H27       1.0000    0.81957   0.76400   0.69900   Biso      1.000     H          0.113551  
         H28       1.0000    0.94227   0.74640   0.59210   Biso      1.000     H          0.118281  
         H29       1.0000    0.73260   0.93040   0.34310   Biso      1.000     H          0.118206  
         H30       1.0000    0.85920   0.84320   0.36240   Biso      1.000     H          0.12133   
         H31       1.0000    0.15290   0.93500   0.23600   Biso      1.000     H          0.113563  
         H32       1.0000    0.27560   0.84570   0.25360   Biso      1.000     H          0.118204  
         H33       1.0000    0.06593   0.41270   0.06960   Biso      1.000     H          0.118185  
         H34       1.0000    0.19253   0.51920   0.15680   Biso      1.000     H          0.121302  
         H35       1.0000    0.48623   0.30100   0.06500   Biso      1.000     H          0.113561  
         H36       1.0000    0.60893   0.40790   0.15430   Biso      1.000     H          0.118229  
         H37       1.0000    0.39927   0.34310   0.41270   Biso      1.000     H          0.118231  
         H38       1.0000    0.52587   0.36240   0.51920   Biso      1.000     H          0.121309  
         H39       1.0000    0.81957   0.23600   0.30100   Biso      1.000     H          0.11355   
         H40       1.0000    0.94227   0.25360   0.40790   Biso      1.000     H          0.118283  
         H41       1.0000    0.73260   0.06960   0.65690   Biso      1.000     H          0.118205  
         H42       1.0000    0.85920   0.15680   0.63760   Biso      1.000     H          0.12133   
         H43       1.0000    0.15290   0.06500   0.76400   Biso      1.000     H          0.113563  
         H44       1.0000    0.72440   0.74640   0.15430   Biso      1.000     H          0.118204  
         H45       1.0000    0.84710   0.76400   0.06500   Biso      1.000     H          0.113563  
         H46       1.0000    0.14080   0.63760   0.15680   Biso      1.000     H          0.12133   
         H47       1.0000    0.05773   0.40790   0.25360   Biso      1.000     H          0.118283  
         H48       1.0000    0.93407   0.06960   0.41270   Biso      1.000     H          0.118185  
         O1        1.0000    0.09270   0.76110   0.36240   Biso      1.000     O          -0.564336           
         O2        1.0000    0.75937   0.63760   0.39870   Biso      1.000     O          -0.564328           
         O3        1.0000    0.90730   0.63760   0.23890   Biso      1.000     O          -0.564336           
         O4        1.0000    0.68570   0.70660   0.24220   Biso      1.000     O          -0.537395           
         O5        1.0000    0.24063   0.60130   0.36240   Biso      1.000     O          -0.564328           
         O6        1.0000    0.01903   0.53560   0.29340   Biso      1.000     O          -0.537432           
         O7        1.0000    0.57397   0.76110   0.39870   Biso      1.000     O          -0.56435  
         O8        1.0000    0.35237   0.75780   0.46440   Biso      1.000     O          -0.537357           
         O9        1.0000    0.90730   0.36240   0.76110   Biso      1.000     O          -0.564336           
         O10       1.0000    0.98097   0.70660   0.46440   Biso      1.000     O          -0.537432           
         O11       1.0000    0.24063   0.39870   0.63760   Biso      1.000     O          -0.564328           
         O12       1.0000    0.01903   0.46440   0.70660   Biso      1.000     O          -0.537432           
         O13       1.0000    0.68570   0.29340   0.75780   Biso      1.000     O          -0.537396           
         O14       1.0000    0.35237   0.24220   0.53560   Biso      1.000     O          -0.537357           
         O15       1.0000    0.31430   0.75780   0.29340   Biso      1.000     O          -0.537396           
         O16       1.0000    0.57397   0.23890   0.60130   Biso      1.000     O          -0.56435  
         O17       1.0000    0.42603   0.60130   0.23890   Biso      1.000     O          -0.564351           
         O18       1.0000    0.98097   0.29340   0.53560   Biso      1.000     O          -0.537432           
         O19       1.0000    0.64763   0.53560   0.24220   Biso      1.000     O          -0.537357           
         O20       1.0000    0.31430   0.24220   0.70660   Biso      1.000     O          -0.537396           
         O21       1.0000    0.09270   0.23890   0.63760   Biso      1.000     O          -0.564336           
         O22       1.0000    0.64763   0.46440   0.75780   Biso      1.000     O          -0.537358           
         O23       1.0000    0.42603   0.39870   0.76110   Biso      1.000     O          -0.56435  
         O24       1.0000    0.75937   0.36240   0.60130   Biso      1.000     O          -0.564328           
         Zn1       1.0000    0.50000   0.29903   0.70097   Biso      1.000     Zn          0.942246  
         Zn2       1.0000    0.16667   0.29903   0.59806   Biso      1.000     Zn          0.942256  
         Zn3       1.0000    0.83333   0.40194   0.70097   Biso      1.000     Zn          0.942256  
         Zn4       1.0000    0.50000   0.70097   0.29903   Biso      1.000     Zn          0.942246  
         Zn5       1.0000    0.16667   0.70097   0.40194   Biso      1.000     Zn          0.942257  
         Zn6       1.0000    0.83333   0.59806   0.29903   Biso      1.000     Zn          0.942256 