
##########################################################################
#               Crystallographic Information Format file
#               Produced by PyCifRW module
#
#  This is a CIF file.  CIF has been adopted by the International
#  Union of Crystallography as the standard for data archiving and
#  transmission.
#
#  For information on this file format, follow the CIF links at
#  http://www.iucr.org
##########################################################################

data_image0

_cell_length_a                          7.73
_cell_length_b                          21.26
_cell_length_c                          21.26
_cell_angle_alpha                       120
_cell_angle_beta                        90
_cell_angle_gamma                       90
_symmetry_space_group_name_H-M          'P 1'
_symmetry_int_tables_number             1
loop_
  _symmetry_equiv_pos_as_xyz
         'x, y, z' 
loop_
  _atom_site_label
  _atom_site_occupancy
  _atom_site_fract_x
  _atom_site_fract_y
  _atom_site_fract_z
  _atom_site_thermal_displace_type
  _atom_site_B_iso_or_equiv
  _atom_site_type_symbol
  _atom_site_charge
         C1        1.0000    0.73857   0.73820   0.65510   Biso      1.000     C          -0.150814           
         C2        1.0000    0.26143   0.34490   0.26180   Biso      1.000     C          -0.150814           
         C3        1.0000    0.25073   0.47430   0.31080   Biso      1.000     C          -0.038322           
         C4        1.0000    0.08543   0.47570   0.33700   Biso      1.000     C          -0.082649           
         C5        1.0000    0.00973   0.41150   0.32520   Biso      1.000     C          -0.14179  
         C6        1.0000    0.33353   0.40880   0.27300   Biso      1.000     C          -0.083347           
         C7        1.0000    0.33713   0.54130   0.32240   Biso      1.000     C          0.625887  
         C8        1.0000    0.20757   0.78740   0.04240   Biso      1.000     C          0.693636  
         C9        1.0000    0.42587   0.71130   0.05690   Biso      1.000     C          0.099943  
         C10       1.0000    0.59477   0.73820   0.08310   Biso      1.000     C          -0.150906           
         C11       1.0000    0.58407   0.68920   0.16350   Biso      1.000     C          -0.0384   
         C12       1.0000    0.41877   0.66300   0.13870   Biso      1.000     C          -0.082635           
         C13       1.0000    0.34307   0.67480   0.08630   Biso      1.000     C          -0.14171  
         C14       1.0000    0.66687   0.72700   0.13580   Biso      1.000     C          -0.083185           
         C15       1.0000    0.67047   0.67760   0.21890   Biso      1.000     C          0.625975  
         C16       1.0000    0.09253   0.34560   0.28870   Biso      1.000     C          0.099893  
         C17       1.0000    0.54090   0.95760   0.74500   Biso      1.000     C          0.693636  
         C18       1.0000    0.92810   0.91690   0.65510   Biso      1.000     C          -0.150844           
         C19       1.0000    0.91740   0.83650   0.52570   Biso      1.000     C          -0.038324           
         C20       1.0000    0.75210   0.86130   0.52430   Biso      1.000     C          -0.082623           
         C21       1.0000    0.67640   0.91370   0.58850   Biso      1.000     C          -0.141733           
         C22       1.0000    0.00020   0.86420   0.59120   Biso      1.000     C          -0.083254           
         C23       1.0000    0.00380   0.78110   0.45870   Biso      1.000     C          0.625847  
         C24       1.0000    0.87423   0.74500   0.78740   Biso      1.000     C          0.693713  
         C25       1.0000    0.09253   0.65440   0.71130   Biso      1.000     C          0.099895  
         C26       1.0000    0.26143   0.65510   0.73820   Biso      1.000     C          -0.15081  
         C27       1.0000    0.25073   0.52570   0.68920   Biso      1.000     C          -0.038327           
         C28       1.0000    0.08543   0.52430   0.66300   Biso      1.000     C          -0.082647           
         C29       1.0000    0.00973   0.58850   0.67480   Biso      1.000     C          -0.141783           
         C30       1.0000    0.33353   0.59120   0.72700   Biso      1.000     C          -0.083344           
         C31       1.0000    0.33713   0.45870   0.67760   Biso      1.000     C          0.625879  
         C32       1.0000    0.75920   0.94310   0.65440   Biso      1.000     C          0.0999    
         C33       1.0000    0.20757   0.21260   0.95760   Biso      1.000     C          0.693636  
         C34       1.0000    0.87423   0.25500   0.21260   Biso      1.000     C          0.693713  
         C35       1.0000    0.66647   0.72700   0.59120   Biso      1.000     C          -0.083353           
         C36       1.0000    0.12577   0.21260   0.25500   Biso      1.000     C          0.693713  
         C37       1.0000    0.90747   0.28870   0.34560   Biso      1.000     C          0.099891  
         C38       1.0000    0.73857   0.26180   0.34490   Biso      1.000     C          -0.150813           
         C39       1.0000    0.74927   0.31080   0.47430   Biso      1.000     C          -0.038324           
         C40       1.0000    0.91457   0.33700   0.47570   Biso      1.000     C          -0.082649           
         C41       1.0000    0.99027   0.32520   0.41150   Biso      1.000     C          -0.141783           
         C42       1.0000    0.66647   0.27300   0.40880   Biso      1.000     C          -0.083343           
         C43       1.0000    0.66287   0.32240   0.54130   Biso      1.000     C          0.625902  
         C44       1.0000    0.79243   0.95760   0.21260   Biso      1.000     C          0.693637  
         C45       1.0000    0.57413   0.94310   0.28870   Biso      1.000     C          0.099943  
         C46       1.0000    0.40523   0.91690   0.26180   Biso      1.000     C          -0.150908           
         C47       1.0000    0.41593   0.83650   0.31080   Biso      1.000     C          -0.038402           
         C48       1.0000    0.58123   0.86130   0.33700   Biso      1.000     C          -0.082636           
         C49       1.0000    0.65693   0.91370   0.32520   Biso      1.000     C          -0.141709           
         C50       1.0000    0.66287   0.67760   0.45870   Biso      1.000     C          0.625888  
         C51       1.0000    0.33313   0.86420   0.27300   Biso      1.000     C          -0.083186           
         C52       1.0000    0.45910   0.25500   0.04240   Biso      1.000     C          0.693636  
         C53       1.0000    0.24080   0.34560   0.05690   Biso      1.000     C          0.099899  
         C54       1.0000    0.07190   0.34490   0.08310   Biso      1.000     C          -0.150841           
         C55       1.0000    0.08260   0.47430   0.16350   Biso      1.000     C          -0.038332           
         C56       1.0000    0.24790   0.47570   0.13870   Biso      1.000     C          -0.082624           
         C57       1.0000    0.32360   0.41150   0.08630   Biso      1.000     C          -0.141728           
         C58       1.0000    0.99980   0.40880   0.13580   Biso      1.000     C          -0.083251           
         C59       1.0000    0.99620   0.54130   0.21890   Biso      1.000     C          0.625868  
         C60       1.0000    0.12577   0.78740   0.74500   Biso      1.000     C          0.693712  
         C61       1.0000    0.90747   0.71130   0.65440   Biso      1.000     C          0.099887  
         C62       1.0000    0.32360   0.58850   0.91370   Biso      1.000     C          -0.141732           
         C63       1.0000    0.74927   0.68920   0.52570   Biso      1.000     C          -0.038312           
         C64       1.0000    0.91457   0.66300   0.52430   Biso      1.000     C          -0.082649           
         C65       1.0000    0.99027   0.67480   0.58850   Biso      1.000     C          -0.141786           
         C66       1.0000    0.32953   0.78110   0.32240   Biso      1.000     C          0.625994  
         C67       1.0000    0.42587   0.28870   0.94310   Biso      1.000     C          0.09994   
         C68       1.0000    0.59477   0.26180   0.91690   Biso      1.000     C          -0.150908           
         C69       1.0000    0.58407   0.31080   0.83650   Biso      1.000     C          -0.038394           
         C70       1.0000    0.33313   0.13580   0.72700   Biso      1.000     C          -0.083196           
         C71       1.0000    0.65693   0.08630   0.67480   Biso      1.000     C          -0.141714           
         C72       1.0000    0.58123   0.13870   0.66300   Biso      1.000     C          -0.082634           
         C73       1.0000    0.41593   0.16350   0.68920   Biso      1.000     C          -0.03839  
         C74       1.0000    0.40523   0.08310   0.73820   Biso      1.000     C          -0.150905           
         C75       1.0000    0.57413   0.05690   0.71130   Biso      1.000     C          0.099945  
         C76       1.0000    0.32953   0.21890   0.67760   Biso      1.000     C          0.625985  
         C77       1.0000    0.79243   0.04240   0.78740   Biso      1.000     C          0.693637  
         C78       1.0000    0.33333   0.27650   0.00000   Biso      1.000     C          -0.307582           
         C79       1.0000    0.00000   0.72350   0.72350   Biso      1.000     C          -0.307617           
         C80       1.0000    0.66667   0.00000   0.72350   Biso      1.000     C          -0.307582           
         C81       1.0000    0.33333   0.72350   0.00000   Biso      1.000     C          -0.307582           
         C82       1.0000    0.00000   0.27650   0.27650   Biso      1.000     C          -0.307617           
         C83       1.0000    0.99620   0.45870   0.78110   Biso      1.000     C          0.625879  
         C84       1.0000    0.66667   0.00000   0.27650   Biso      1.000     C          -0.307582           
         C85       1.0000    0.45910   0.74500   0.95760   Biso      1.000     C          0.693636  
         C86       1.0000    0.99980   0.59120   0.86420   Biso      1.000     C          -0.083262           
         C87       1.0000    0.07190   0.65510   0.91690   Biso      1.000     C          -0.150838           
         C88       1.0000    0.24080   0.65440   0.94310   Biso      1.000     C          0.099901  
         C89       1.0000    0.34307   0.32520   0.91370   Biso      1.000     C          -0.141712           
         C90       1.0000    0.66687   0.27300   0.86420   Biso      1.000     C          -0.083187           
         C91       1.0000    0.67047   0.32240   0.78110   Biso      1.000     C          0.62596   
         C92       1.0000    0.54090   0.04240   0.25500   Biso      1.000     C          0.693636  
         C93       1.0000    0.75920   0.05690   0.34560   Biso      1.000     C          0.099893  
         C94       1.0000    0.92810   0.08310   0.34490   Biso      1.000     C          -0.150844           
         C95       1.0000    0.41877   0.33700   0.86130   Biso      1.000     C          -0.082636           
         C96       1.0000    0.75210   0.13870   0.47570   Biso      1.000     C          -0.082626           
         C97       1.0000    0.67640   0.08630   0.41150   Biso      1.000     C          -0.141728           
         C98       1.0000    0.00020   0.13580   0.40880   Biso      1.000     C          -0.083262           
         C99       1.0000    0.00380   0.21890   0.54130   Biso      1.000     C          0.625836  
         C100      1.0000    0.24790   0.52430   0.86130   Biso      1.000     C          -0.082625           
         C101      1.0000    0.08260   0.52570   0.83650   Biso      1.000     C          -0.038325           
         C102      1.0000    0.91740   0.16350   0.47430   Biso      1.000     C          -0.038314           
         F1        1.0000    0.04137   0.84420   0.74660   Biso      1.000     F          -0.220404           
         F2        1.0000    0.58430   0.30180   0.07130   Biso      1.000     F          -0.179872           
         F3        1.0000    0.53090   0.19000   0.00360   Biso      1.000     F          -0.198524           
         F4        1.0000    0.37470   0.25340   0.09760   Biso      1.000     F          -0.22042  
         F5        1.0000    0.91763   0.92870   0.23050   Biso      1.000     F          -0.179859           
         F6        1.0000    0.86423   0.99640   0.18640   Biso      1.000     F          -0.198527           
         F7        1.0000    0.19757   0.18640   0.19000   Biso      1.000     F          -0.198567           
         F8        1.0000    0.25097   0.23050   0.30180   Biso      1.000     F          -0.179898           
         F9        1.0000    0.04137   0.15580   0.25340   Biso      1.000     F          -0.220405           
         F10       1.0000    0.58430   0.69820   0.92870   Biso      1.000     F          -0.179872           
         F11       1.0000    0.53090   0.81000   0.99640   Biso      1.000     F          -0.198523           
         F12       1.0000    0.37470   0.74660   0.90240   Biso      1.000     F          -0.22042  
         F13       1.0000    0.19757   0.81360   0.81000   Biso      1.000     F          -0.198567           
         F14       1.0000    0.91763   0.07130   0.76950   Biso      1.000     F          -0.179859           
         F15       1.0000    0.70803   0.90240   0.15580   Biso      1.000     F          -0.220419           
         F16       1.0000    0.25097   0.76950   0.69820   Biso      1.000     F          -0.179898           
         F17       1.0000    0.46910   0.99640   0.81000   Biso      1.000     F          -0.198525           
         F18       1.0000    0.80243   0.19000   0.18640   Biso      1.000     F          -0.198567           
         F19       1.0000    0.41570   0.07130   0.30180   Biso      1.000     F          -0.17987  
         F20       1.0000    0.62530   0.09760   0.25340   Biso      1.000     F          -0.22042  
         F21       1.0000    0.08237   0.23050   0.92870   Biso      1.000     F          -0.179859           
         F22       1.0000    0.13577   0.18640   0.99640   Biso      1.000     F          -0.198527           
         F23       1.0000    0.29197   0.15580   0.90240   Biso      1.000     F          -0.220416           
         F24       1.0000    0.74903   0.69820   0.76950   Biso      1.000     F          -0.1799   
         F25       1.0000    0.95863   0.25340   0.15580   Biso      1.000     F          -0.220406           
         F26       1.0000    0.80243   0.81000   0.81360   Biso      1.000     F          -0.198566           
         F27       1.0000    0.41570   0.92870   0.69820   Biso      1.000     F          -0.179871           
         F28       1.0000    0.62530   0.90240   0.74660   Biso      1.000     F          -0.220421           
         F29       1.0000    0.08237   0.76950   0.07130   Biso      1.000     F          -0.179859           
         F30       1.0000    0.13577   0.81360   0.00360   Biso      1.000     F          -0.198526           
         F31       1.0000    0.29197   0.84420   0.09760   Biso      1.000     F          -0.220415           
         F32       1.0000    0.74903   0.30180   0.23050   Biso      1.000     F          -0.179899           
         F33       1.0000    0.95863   0.74660   0.84420   Biso      1.000     F          -0.220406           
         F34       1.0000    0.46910   0.00360   0.19000   Biso      1.000     F          -0.198526           
         F35       1.0000    0.70803   0.09760   0.84420   Biso      1.000     F          -0.220417           
         F36       1.0000    0.86423   0.00360   0.81360   Biso      1.000     F          -0.198528           
         H1        1.0000    0.34413   0.06480   0.76330   Biso      1.000     H          0.115204  
         H2        1.0000    0.65587   0.23670   0.93520   Biso      1.000     H          0.115204  
         H3        1.0000    0.44293   0.59240   0.74580   Biso      1.000     H          0.11681   
         H4        1.0000    0.89863   0.58680   0.65730   Biso      1.000     H          0.118403  
         H5        1.0000    0.02583   0.48070   0.63780   Biso      1.000     H          0.121821  
         H6        1.0000    0.32253   0.69850   0.76330   Biso      1.000     H          0.115197  
         H7        1.0000    0.10960   0.84660   0.59240   Biso      1.000     H          0.116751  
         H8        1.0000    0.56530   0.92950   0.58680   Biso      1.000     H          0.118357  
         H9        1.0000    0.69250   0.84290   0.48070   Biso      1.000     H          0.121785  
         H10       1.0000    0.98920   0.93520   0.69850   Biso      1.000     H          0.115179  
         H11       1.0000    0.77627   0.74580   0.15340   Biso      1.000     H          0.116726  
         H12       1.0000    0.23197   0.65730   0.07050   Biso      1.000     H          0.118322  
         H13       1.0000    0.35917   0.63780   0.15710   Biso      1.000     H          0.121796  
         H14       1.0000    0.65587   0.76330   0.06480   Biso      1.000     H          0.115205  
         H15       1.0000    0.44293   0.40760   0.25420   Biso      1.000     H          0.11681   
         H16       1.0000    0.89863   0.41320   0.34270   Biso      1.000     H          0.118402  
         H17       1.0000    0.02583   0.51930   0.36220   Biso      1.000     H          0.121822  
         H18       1.0000    0.89040   0.40760   0.15340   Biso      1.000     H          0.116752  
         H19       1.0000    0.67747   0.76330   0.69850   Biso      1.000     H          0.115195  
         H20       1.0000    0.97417   0.63780   0.48070   Biso      1.000     H          0.121822  
         H21       1.0000    0.10137   0.65730   0.58680   Biso      1.000     H          0.118402  
         H22       1.0000    0.35917   0.36220   0.84290   Biso      1.000     H          0.121796  
         H23       1.0000    0.55707   0.74580   0.59240   Biso      1.000     H          0.116811  
         H24       1.0000    0.23197   0.34270   0.92950   Biso      1.000     H          0.118322  
         H25       1.0000    0.98920   0.06480   0.30150   Biso      1.000     H          0.115179  
         H26       1.0000    0.64083   0.15710   0.63780   Biso      1.000     H          0.121799  
         H27       1.0000    0.76803   0.07050   0.65730   Biso      1.000     H          0.118324  
         H28       1.0000    0.22373   0.15340   0.74580   Biso      1.000     H          0.116726  
         H29       1.0000    0.01080   0.69850   0.93520   Biso      1.000     H          0.11518   
         H30       1.0000    0.30750   0.48070   0.84290   Biso      1.000     H          0.121786  
         H31       1.0000    0.43470   0.58680   0.92950   Biso      1.000     H          0.118358  
         H32       1.0000    0.89040   0.59240   0.84660   Biso      1.000     H          0.116753  
         H33       1.0000    0.67747   0.23670   0.30150   Biso      1.000     H          0.115196  
         H34       1.0000    0.97417   0.36220   0.51930   Biso      1.000     H          0.12182   
         H35       1.0000    0.10137   0.34270   0.41320   Biso      1.000     H          0.118402  
         H36       1.0000    0.55707   0.25420   0.40760   Biso      1.000     H          0.116813  
         H37       1.0000    0.34413   0.93520   0.23670   Biso      1.000     H          0.115204  
         H38       1.0000    0.64083   0.84290   0.36220   Biso      1.000     H          0.121798  
         H39       1.0000    0.76803   0.92950   0.34270   Biso      1.000     H          0.118323  
         H40       1.0000    0.22373   0.84660   0.25420   Biso      1.000     H          0.116725  
         H41       1.0000    0.01080   0.30150   0.06480   Biso      1.000     H          0.115181  
         H42       1.0000    0.30750   0.51930   0.15710   Biso      1.000     H          0.121784  
         H43       1.0000    0.43470   0.41320   0.07050   Biso      1.000     H          0.118357  
         H44       1.0000    0.10960   0.15340   0.40760   Biso      1.000     H          0.116752  
         H45       1.0000    0.56530   0.07050   0.41320   Biso      1.000     H          0.118357  
         H46       1.0000    0.69250   0.15710   0.51930   Biso      1.000     H          0.121787  
         H47       1.0000    0.77627   0.25420   0.84660   Biso      1.000     H          0.116725  
         H48       1.0000    0.32253   0.30150   0.23670   Biso      1.000     H          0.115195  
         O1        1.0000    0.07420   0.39940   0.76100   Biso      1.000     O          -0.573972           
         O2        1.0000    0.40753   0.23900   0.63840   Biso      1.000     O          -0.573969           
         O3        1.0000    0.92580   0.23900   0.60060   Biso      1.000     O          -0.573946           
         O4        1.0000    0.14620   0.24210   0.53560   Biso      1.000     O          -0.544242           
         O5        1.0000    0.59247   0.36160   0.76100   Biso      1.000     O          -0.573972           
         O6        1.0000    0.81287   0.29350   0.75790   Biso      1.000     O          -0.544264           
         O7        1.0000    0.25913   0.39940   0.63840   Biso      1.000     O          -0.573989           
         O8        1.0000    0.47953   0.46440   0.70650   Biso      1.000     O          -0.544228           
         O9        1.0000    0.92580   0.76100   0.39940   Biso      1.000     O          -0.57394  
         O10       1.0000    0.18713   0.24210   0.70650   Biso      1.000     O          -0.544299           
         O11       1.0000    0.59247   0.63840   0.23900   Biso      1.000     O          -0.573985           
         O12       1.0000    0.81287   0.70650   0.24210   Biso      1.000     O          -0.544261           
         O13       1.0000    0.14620   0.75790   0.46440   Biso      1.000     O          -0.544261           
         O14       1.0000    0.47953   0.53560   0.29350   Biso      1.000     O          -0.544272           
         O15       1.0000    0.85380   0.46440   0.75790   Biso      1.000     O          -0.544276           
         O16       1.0000    0.25913   0.60060   0.36160   Biso      1.000     O          -0.573994           
         O17       1.0000    0.74087   0.36160   0.60060   Biso      1.000     O          -0.574017           
         O18       1.0000    0.18713   0.75790   0.29350   Biso      1.000     O          -0.544302           
         O19       1.0000    0.52047   0.29350   0.53560   Biso      1.000     O          -0.544248           
         O20       1.0000    0.85380   0.53560   0.24210   Biso      1.000     O          -0.544255           
         O21       1.0000    0.07420   0.60060   0.23900   Biso      1.000     O          -0.573968           
         O22       1.0000    0.52047   0.70650   0.46440   Biso      1.000     O          -0.54427  
         O23       1.0000    0.74087   0.63840   0.39940   Biso      1.000     O          -0.573994           
         O24       1.0000    0.40753   0.76100   0.36160   Biso      1.000     O          -0.573989           
         Zn1       1.0000    0.33333   0.70092   0.40183   Biso      1.000     Zn          0.952249  
         Zn2       1.0000    0.66667   0.59817   0.29908   Biso      1.000     Zn          0.952248  
         Zn3       1.0000    0.00000   0.70091   0.29908   Biso      1.000     Zn          0.952218  
         Zn4       1.0000    0.33333   0.29909   0.59818   Biso      1.000     Zn          0.952207  
         Zn5       1.0000    0.66667   0.40183   0.70091   Biso      1.000     Zn          0.952225  
         Zn6       1.0000    0.00000   0.29909   0.70092   Biso      1.000     Zn          0.952214 