
##########################################################################
#               Crystallographic Information Format file
#               Produced by PyCifRW module
#
#  This is a CIF file.  CIF has been adopted by the International
#  Union of Crystallography as the standard for data archiving and
#  transmission.
#
#  For information on this file format, follow the CIF links at
#  http://www.iucr.org
##########################################################################

data_image0

_cell_length_a                          8.94
_cell_length_b                          12.48
_cell_length_c                          14.02
_cell_angle_alpha                       90
_cell_angle_beta                        90
_cell_angle_gamma                       91.73
_symmetry_space_group_name_H-M          'P 1'
_symmetry_int_tables_number             1
loop_
  _symmetry_equiv_pos_as_xyz
         'x, y, z' 
loop_
  _atom_site_label
  _atom_site_occupancy
  _atom_site_fract_x
  _atom_site_fract_y
  _atom_site_fract_z
  _atom_site_thermal_displace_type
  _atom_site_B_iso_or_equiv
  _atom_site_type_symbol
  _atom_site_charge
         C1        1.0000    0.48950   0.58150   0.88250   Biso      1.000     C          -0.338683           
         C2        1.0000    0.85390   0.38490   0.68720   Biso      1.000     C          0.627149  
         C3        1.0000    0.98460   0.43360   0.62840   Biso      1.000     C          -0.349486           
         C4        1.0000    0.94160   0.46580   0.52770   Biso      1.000     C          -0.10895999999999999          
         C5        1.0000    0.90420   0.37050   0.46720   Biso      1.000     C          0.573047  
         C6        1.0000    0.98950   0.08150   0.11750   Biso      1.000     C          -0.338698           
         C7        1.0000    0.93180   0.01900   0.03130   Biso      1.000     C          -0.093316           
         C8        1.0000    0.81880   0.08320   0.97330   Biso      1.000     C          0.5639569999999999  
         C9        1.0000    0.64610   0.11510   0.68720   Biso      1.000     C          0.6271140000000001  
         C10       1.0000    0.51540   0.06640   0.62840   Biso      1.000     C          -0.349479           
         C11       1.0000    0.55840   0.03420   0.52770   Biso      1.000     C          -0.108944           
         C12       1.0000    0.59580   0.12950   0.46720   Biso      1.000     C          0.573041  
         C13       1.0000    0.37570   0.62170   0.81170   Biso      1.000     C          0.61687   
         C14       1.0000    0.68120   0.41680   0.97330   Biso      1.000     C          0.563955  
         C15       1.0000    0.43180   0.51900   0.96870   Biso      1.000     C          -0.093313           
         C16       1.0000    0.14610   0.61510   0.31280   Biso      1.000     C          0.627141  
         C17       1.0000    0.01540   0.56640   0.37160   Biso      1.000     C          -0.349513           
         C18       1.0000    0.05840   0.53420   0.47230   Biso      1.000     C          -0.10893599999999999          
         C19       1.0000    0.09580   0.62950   0.53280   Biso      1.000     C          0.5729569999999999  
         C20       1.0000    0.12430   0.87830   0.81170   Biso      1.000     C          0.6168520000000001  
         C21       1.0000    0.01050   0.91850   0.88250   Biso      1.000     C          -0.33869299999999997          
         C22       1.0000    0.06820   0.98100   0.96870   Biso      1.000     C          -0.093307           
         C23       1.0000    0.18120   0.91680   0.02670   Biso      1.000     C          0.563954  
         C24       1.0000    0.35390   0.88490   0.31280   Biso      1.000     C          0.6270859999999999  
         C25       1.0000    0.48460   0.93360   0.37160   Biso      1.000     C          -0.349501           
         C26       1.0000    0.44160   0.96580   0.47230   Biso      1.000     C          -0.108963           
         C27       1.0000    0.40420   0.87050   0.53280   Biso      1.000     C          0.573142  
         C28       1.0000    0.31880   0.58320   0.02670   Biso      1.000     C          0.5639350000000001  
         C29       1.0000    0.56820   0.48100   0.03130   Biso      1.000     C          -0.093316           
         C30       1.0000    0.87570   0.12170   0.18830   Biso      1.000     C          0.61688   
         C31       1.0000    0.62430   0.37830   0.18830   Biso      1.000     C          0.6168560000000001  
         C32       1.0000    0.51050   0.41850   0.11750   Biso      1.000     C          -0.33869099999999996          
         H1        1.0000    0.44100   0.46460   0.15250   Biso      1.000     H          0.170721  
         H2        1.0000    0.45110   0.35570   0.09390   Biso      1.000     H          0.16042   
         H3        1.0000    0.62220   0.54680   0.05560   Biso      1.000     H          0.11188800000000002           
         H4        1.0000    0.02580   0.49760   0.66220   Biso      1.000     H          0.164374  
         H5        1.0000    0.06480   0.38070   0.62470   Biso      1.000     H          0.163654  
         H6        1.0000    0.05900   0.03540   0.15250   Biso      1.000     H          0.170727  
         H7        1.0000    0.04890   0.14430   0.09390   Biso      1.000     H          0.16043   
         H8        1.0000    0.87780   0.95320   0.05560   Biso      1.000     H          0.111899  
         H9        1.0000    0.47420   0.00240   0.66220   Biso      1.000     H          0.164382  
         H10       1.0000    0.43520   0.11930   0.62470   Biso      1.000     H          0.163667  
         H11       1.0000    0.65090   0.99130   0.53260   Biso      1.000     H          0.12015899999999999           
         H12       1.0000    0.84910   0.50870   0.53260   Biso      1.000     H          0.12015799999999999           
         H13       1.0000    0.54890   0.64430   0.90610   Biso      1.000     H          0.160414  
         H14       1.0000    0.55900   0.53540   0.84750   Biso      1.000     H          0.170711  
         H15       1.0000    0.34910   0.00870   0.46740   Biso      1.000     H          0.120153  
         H16       1.0000    0.56480   0.88070   0.37530   Biso      1.000     H          0.163721  
         H17       1.0000    0.52580   0.99760   0.33780   Biso      1.000     H          0.164385  
         H18       1.0000    0.95110   0.85570   0.90610   Biso      1.000     H          0.160434  
         H19       1.0000    0.12220   0.04680   0.94440   Biso      1.000     H          0.11187899999999999           
         H20       1.0000    0.15090   0.49130   0.46740   Biso      1.000     H          0.12016600000000001           
         H21       1.0000    0.93520   0.61930   0.37530   Biso      1.000     H          0.163733  
         H22       1.0000    0.97420   0.50240   0.33780   Biso      1.000     H          0.16438699999999998           
         H23       1.0000    0.37780   0.45320   0.94440   Biso      1.000     H          0.11186099999999999           
         H24       1.0000    0.94100   0.96460   0.84750   Biso      1.000     H          0.170726  
         O1        1.0000    0.41520   0.69690   0.75460   Biso      1.000     O          -0.48545200000000005          
         O2        1.0000    0.27340   0.60680   0.33170   Biso      1.000     O          -0.369952           
         O3        1.0000    0.18580   0.56060   0.02630   Biso      1.000     O          -0.302307           
         O4        1.0000    0.74500   0.07480   0.19340   Biso      1.000     O          -0.350225           
         O5        1.0000    0.37730   0.66340   0.07770   Biso      1.000     O          -0.507069           
         O6        1.0000    0.10040   0.66470   0.23080   Biso      1.000     O          -0.483757           
         O7        1.0000    0.21550   0.62800   0.58540   Biso      1.000     O          -0.46860799999999997          
         O8        1.0000    0.22660   0.89320   0.33170   Biso      1.000     O          -0.369858           
         O9        1.0000    0.24500   0.57480   0.80660   Biso      1.000     O          -0.350189           
         O10       1.0000    0.08480   0.80310   0.75460   Biso      1.000     O          -0.48546000000000006          
         O11       1.0000    0.31420   0.93940   0.02630   Biso      1.000     O          -0.30230100000000004          
         O12       1.0000    0.28450   0.87200   0.58540   Biso      1.000     O          -0.468659           
         O13       1.0000    0.39960   0.83530   0.23080   Biso      1.000     O          -0.483725           
         O14       1.0000    0.51120   0.20660   0.46250   Biso      1.000     O          -0.33519699999999997          
         O15       1.0000    0.12270   0.83660   0.07770   Biso      1.000     O          -0.507096           
         O16       1.0000    0.01120   0.70660   0.53750   Biso      1.000     O          -0.33511199999999997          
         O17       1.0000    0.71550   0.12800   0.41460   Biso      1.000     O          -0.46863900000000003          
         O18       1.0000    0.25500   0.92520   0.80660   Biso      1.000     O          -0.350204           
         O19       1.0000    0.60040   0.16470   0.76920   Biso      1.000     O          -0.483675           
         O20       1.0000    0.48880   0.79340   0.53750   Biso      1.000     O          -0.335333           
         O21       1.0000    0.58480   0.30310   0.24540   Biso      1.000     O          -0.48544899999999996          
         O22       1.0000    0.81420   0.43940   0.97370   Biso      1.000     O          -0.30232600000000004          
         O23       1.0000    0.62270   0.33660   0.92230   Biso      1.000     O          -0.507092           
         O24       1.0000    0.77340   0.10680   0.66830   Biso      1.000     O          -0.369886           
         O25       1.0000    0.72660   0.39320   0.66830   Biso      1.000     O          -0.369933           
         O26       1.0000    0.89960   0.33530   0.76920   Biso      1.000     O          -0.48370100000000005          
         O27       1.0000    0.98880   0.29340   0.46250   Biso      1.000     O          -0.33520300000000003          
         O28       1.0000    0.75500   0.42520   0.19340   Biso      1.000     O          -0.350206           
         O29       1.0000    0.91520   0.19690   0.24540   Biso      1.000     O          -0.48546000000000006          
         O30       1.0000    0.68580   0.06060   0.97370   Biso      1.000     O          -0.302348           
         O31       1.0000    0.87730   0.16340   0.92230   Biso      1.000     O          -0.507104           
         O32       1.0000    0.78450   0.37200   0.41460   Biso      1.000     O          -0.468654           
         Zn1       1.0000    0.25000   0.75000   0.16126   Biso      1.000     Zn          0.9191229999999999  
         Zn2       1.0000    0.25000   0.75000   0.67367   Biso      1.000     Zn          0.922365  
         Zn3       1.0000    0.75000   0.25000   0.83874   Biso      1.000     Zn          0.9191459999999999  
         Zn4       1.0000    0.75000   0.25000   0.32633   Biso      1.000     Zn          0.9223600000000001 