
##########################################################################
#               Crystallographic Information Format file
#               Produced by PyCifRW module
#
#  This is a CIF file.  CIF has been adopted by the International
#  Union of Crystallography as the standard for data archiving and
#  transmission.
#
#  For information on this file format, follow the CIF links at
#  http://www.iucr.org
##########################################################################

data_image0

_cell_length_a                          9.726
_cell_length_b                          9.911
_cell_length_c                          10.45
_cell_angle_alpha                       99.72
_cell_angle_beta                        111.11
_cell_angle_gamma                       108.42
_symmetry_space_group_name_H-M          'P 1'
_symmetry_int_tables_number             1
loop_
  _symmetry_equiv_pos_as_xyz
         'x, y, z' 
loop_
  _atom_site_label
  _atom_site_occupancy
  _atom_site_fract_x
  _atom_site_fract_y
  _atom_site_fract_z
  _atom_site_thermal_displace_type
  _atom_site_B_iso_or_equiv
  _atom_site_type_symbol
  _atom_site_charge
         C1        1.0000    0.41350   0.84650   0.44140   Biso      1.000     C          -0.097079           
         C2        1.0000    0.95790   0.47090   0.85410   Biso      1.000     C          -0.109358           
         C3        1.0000    0.52750   0.81150   0.68130   Biso      1.000     C          0.590734  
         C4        1.0000    0.51620   0.91000   0.58750   Biso      1.000     C          -0.006612000000000001         
         C5        1.0000    0.60110   0.06320   0.64530   Biso      1.000     C          -0.10033500000000001          
         C6        1.0000    0.75370   0.69850   0.40880   Biso      1.000     C          0.6259170000000001  
         C7        1.0000    0.88100   0.85480   0.45490   Biso      1.000     C          -0.020522           
         C8        1.0000    0.89960   0.96850   0.56580   Biso      1.000     C          -0.10067100000000001          
         C9        1.0000    0.90820   0.54500   0.05740   Biso      1.000     C          -0.116968           
         C10       1.0000    0.98290   0.88750   0.39070   Biso      1.000     C          -0.10669300000000001          
         C11       1.0000    0.13790   0.48570   0.09050   Biso      1.000     C          -0.014740000000000001         
         C12       1.0000    0.09180   0.45500   0.94260   Biso      1.000     C          -0.11696500000000001          
         C13       1.0000    0.04210   0.52910   0.14590   Biso      1.000     C          -0.10935399999999999          
         C14       1.0000    0.47250   0.18850   0.31870   Biso      1.000     C          0.590733  
         C15       1.0000    0.48380   0.09000   0.41250   Biso      1.000     C          -0.0066159999999999995        
         C16       1.0000    0.58650   0.15350   0.55860   Biso      1.000     C          -0.097068           
         C17       1.0000    0.39890   0.93680   0.35470   Biso      1.000     C          -0.100326           
         C18       1.0000    0.28720   0.47250   0.18940   Biso      1.000     C          0.6207600000000001  
         C19       1.0000    0.71280   0.52750   0.81060   Biso      1.000     C          0.6207600000000001  
         C20       1.0000    0.86210   0.51430   0.90950   Biso      1.000     C          -0.014738999999999999         
         C21       1.0000    0.10040   0.03150   0.43420   Biso      1.000     C          -0.10067100000000001          
         C22       1.0000    0.11900   0.14520   0.54510   Biso      1.000     C          -0.02052  
         C23       1.0000    0.24630   0.30150   0.59120   Biso      1.000     C          0.625916  
         C24       1.0000    0.01710   0.11250   0.60930   Biso      1.000     C          -0.10669200000000001          
         H1        1.0000    0.83260   0.94800   0.61130   Biso      1.000     H          0.114853  
         H2        1.0000    0.02710   0.18780   0.68300   Biso      1.000     H          0.117524  
         H3        1.0000    0.84760   0.57670   0.09680   Biso      1.000     H          0.11118299999999999           
         H4        1.0000    0.93080   0.45260   0.75600   Biso      1.000     H          0.11998299999999999           
         H5        1.0000    0.35430   0.74310   0.40140   Biso      1.000     H          0.115427  
         H6        1.0000    0.66920   0.10640   0.74400   Biso      1.000     H          0.120847  
         H7        1.0000    0.15240   0.42330   0.90320   Biso      1.000     H          0.11118299999999999           
         H8        1.0000    0.16740   0.05200   0.38870   Biso      1.000     H          0.114853  
         H9        1.0000    0.06920   0.54740   0.24400   Biso      1.000     H          0.11998299999999999           
         H10       1.0000    0.64570   0.25690   0.59860   Biso      1.000     H          0.115427  
         H11       1.0000    0.33080   0.89360   0.25600   Biso      1.000     H          0.12084600000000001           
         H12       1.0000    0.97290   0.81220   0.31700   Biso      1.000     H          0.117524  
         O1        1.0000    0.66830   0.67330   0.47410   Biso      1.000     O          -0.5511189999999999           
         O2        1.0000    0.38210   0.45900   0.13510   Biso      1.000     O          -0.6042529999999999           
         O3        1.0000    0.59700   0.86650   0.81580   Biso      1.000     O          -0.529614           
         O4        1.0000    0.74170   0.60360   0.30270   Biso      1.000     O          -0.574328           
         O5        1.0000    0.30820   0.47580   0.31460   Biso      1.000     O          -0.551506           
         O6        1.0000    0.45560   0.66900   0.62150   Biso      1.000     O          -0.6025739999999999           
         O7        1.0000    0.40300   0.13350   0.18420   Biso      1.000     O          -0.529614           
         O8        1.0000    0.69180   0.52420   0.68540   Biso      1.000     O          -0.551506           
         O9        1.0000    0.25830   0.39640   0.69730   Biso      1.000     O          -0.574328           
         O10       1.0000    0.33170   0.32670   0.52590   Biso      1.000     O          -0.5511189999999999           
         O11       1.0000    0.54440   0.33100   0.37850   Biso      1.000     O          -0.6025739999999999           
         O12       1.0000    0.61790   0.54100   0.86490   Biso      1.000     O          -0.604252           
         Zn1       1.0000    0.50000   0.50000   0.50000   Biso      1.000     Zn          1.050188  
         Zn2       1.0000    0.57280   0.39740   0.21070   Biso      1.000     Zn          1.024037  
         Zn3       1.0000    0.42720   0.60260   0.78930   Biso      1.000     Zn          1.024037 