
##########################################################################
#               Crystallographic Information Format file
#               Produced by PyCifRW module
#
#  This is a CIF file.  CIF has been adopted by the International
#  Union of Crystallography as the standard for data archiving and
#  transmission.
#
#  For information on this file format, follow the CIF links at
#  http://www.iucr.org
##########################################################################

data_image0

_cell_length_a                          11.6936
_cell_length_b                          11.6936
_cell_length_c                          28.6993
_cell_angle_alpha                       90
_cell_angle_beta                        90
_cell_angle_gamma                       120
_symmetry_space_group_name_H-M          'P 1'
_symmetry_int_tables_number             1
loop_
  _symmetry_equiv_pos_as_xyz
         'x, y, z' 
loop_
  _atom_site_label
  _atom_site_occupancy
  _atom_site_fract_x
  _atom_site_fract_y
  _atom_site_fract_z
  _atom_site_thermal_displace_type
  _atom_site_B_iso_or_equiv
  _atom_site_type_symbol
  _atom_site_charge
         Ag1       1.0000    0.73361   0.71374   0.39594   Biso      1.000     Ag          0.428298  
         Ag2       1.0000    0.51255   0.01274   0.04476   Biso      1.000     Ag          0.433727  
         Ag3       1.0000    0.98013   0.26639   0.72927   Biso      1.000     Ag          0.428308  
         Ag4       1.0000    0.25811   0.47186   0.71716   Biso      1.000     Ag          0.424415  
         Ag5       1.0000    0.98726   0.49981   0.71142   Biso      1.000     Ag          0.433672  
         Ag6       1.0000    0.71374   0.73361   0.60406   Biso      1.000     Ag          0.428285  
         Ag7       1.0000    0.27931   0.00000   0.16667   Biso      1.000     Ag          0.483447  
         Ag8       1.0000    0.21375   0.74189   0.05050   Biso      1.000     Ag          0.424428  
         Ag9       1.0000    0.48745   0.50019   0.62191   Biso      1.000     Ag          0.433657  
         Ag10      1.0000    0.74189   0.21375   0.94950   Biso      1.000     Ag          0.424431  
         Ag11      1.0000    0.01274   0.51255   0.95524   Biso      1.000     Ag          0.433739  
         Ag12      1.0000    0.26639   0.98013   0.27073   Biso      1.000     Ag          0.428295  
         Ag13      1.0000    0.47186   0.25811   0.28284   Biso      1.000     Ag          0.424407  
         Ag14      1.0000    0.49981   0.98726   0.28858   Biso      1.000     Ag          0.433659  
         Ag15      1.0000    0.72069   0.72069   0.50000   Biso      1.000     Ag          0.483416  
         Ag16      1.0000    0.01987   0.28626   0.93739   Biso      1.000     Ag          0.428325  
         Ag17      1.0000    0.28626   0.01987   0.06261   Biso      1.000     Ag          0.428312  
         Ag18      1.0000    0.78625   0.52814   0.61617   Biso      1.000     Ag          0.424415  
         Ag19      1.0000    0.00000   0.27931   0.83333   Biso      1.000     Ag          0.483447  
         Ag20      1.0000    0.52814   0.78625   0.38383   Biso      1.000     Ag          0.424415  
         Ag21      1.0000    0.50019   0.48745   0.37809   Biso      1.000     Ag          0.433668  
         C1        1.0000    0.41100   0.64010   0.50393   Biso      1.000     C          0.111032  
         C2        1.0000    0.44720   0.75240   0.53050   Biso      1.000     C          -0.123279           
         C3        1.0000    0.00120   0.82230   0.45310   Biso      1.000     C          0.491753  
         C4        1.0000    0.15450   0.87820   0.45230   Biso      1.000     C          0.280629  
         C5        1.0000    0.20280   0.77570   0.44460   Biso      1.000     C          0.238617  
         C6        1.0000    0.17400   0.69570   0.39670   Biso      1.000     C          0.271217  
         C7        1.0000    0.24670   0.78220   0.35230   Biso      1.000     C          0.506413  
         C8        1.0000    0.52110   0.30030   0.48400   Biso      1.000     C          -0.114932           
         C9        1.0000    0.51440   0.22570   0.44530   Biso      1.000     C          -0.142258           
         C10       1.0000    0.77570   0.20280   0.55540   Biso      1.000     C          0.238617  
         C11       1.0000    0.74580   0.37260   0.43080   Biso      1.000     C          -0.115734           
         C12       1.0000    0.75240   0.44720   0.46950   Biso      1.000     C          -0.123277           
         C13       1.0000    0.64010   0.41100   0.49607   Biso      1.000     C          0.111048  
         C14       1.0000    0.64490   0.48910   0.53490   Biso      1.000     C          0.064548  
         C15       1.0000    0.63890   0.54880   0.56810   Biso      1.000     C          -0.543152           
         C16       1.0000    0.37260   0.74580   0.56920   Biso      1.000     C          -0.115732           
         C17       1.0000    0.26190   0.62680   0.58135   Biso      1.000     C          0.061351  
         C18       1.0000    0.17890   0.17770   0.88023   Biso      1.000     C          0.491696  
         C19       1.0000    0.27630   0.12180   0.88103   Biso      1.000     C          0.28061   
         C20       1.0000    0.42710   0.22430   0.88873   Biso      1.000     C          0.238635  
         C21       1.0000    0.47830   0.30430   0.93663   Biso      1.000     C          0.27106   
         C22       1.0000    0.46450   0.21780   0.98103   Biso      1.000     C          0.506338  
         C23       1.0000    0.22080   0.69970   0.84933   Biso      1.000     C          -0.114875           
         C24       1.0000    0.90990   0.36110   0.90143   Biso      1.000     C          -0.543478           
         C25       1.0000    0.84420   0.35510   0.86823   Biso      1.000     C          0.064813  
         C26       1.0000    0.69480   0.24760   0.80283   Biso      1.000     C          -0.123244           
         C27       1.0000    0.28870   0.77430   0.88803   Biso      1.000     C          -0.142515           
         C28       1.0000    0.17770   0.17890   0.11977   Biso      1.000     C          0.491696  
         C29       1.0000    0.12180   0.27630   0.11897   Biso      1.000     C          0.28061   
         C30       1.0000    0.22430   0.42710   0.11127   Biso      1.000     C          0.238635  
         C31       1.0000    0.30430   0.47830   0.06337   Biso      1.000     C          0.27106   
         C32       1.0000    0.21780   0.46450   0.01897   Biso      1.000     C          0.506338  
         C33       1.0000    0.69970   0.22080   0.15067   Biso      1.000     C          -0.114873           
         C34       1.0000    0.77430   0.28870   0.11197   Biso      1.000     C          -0.142516           
         C35       1.0000    0.73810   0.36490   0.08532   Biso      1.000     C          0.061418  
         C36       1.0000    0.62740   0.37320   0.09747   Biso      1.000     C          -0.115848           
         C37       1.0000    0.55280   0.30520   0.13617   Biso      1.000     C          -0.123252           
         C38       1.0000    0.58900   0.22910   0.16274   Biso      1.000     C          0.110927  
         C39       1.0000    0.77090   0.35990   0.82940   Biso      1.000     C          0.111024  
         C40       1.0000    0.51090   0.15580   0.20157   Biso      1.000     C          0.064583  
         C41       1.0000    0.54880   0.63890   0.43190   Biso      1.000     C          -0.543296           
         C42       1.0000    0.48910   0.64490   0.46510   Biso      1.000     C          0.064688  
         C43       1.0000    0.82110   0.99880   0.78643   Biso      1.000     C          0.491687  
         C44       1.0000    0.72370   0.84550   0.78563   Biso      1.000     C          0.28089   
         C45       1.0000    0.57290   0.79720   0.77793   Biso      1.000     C          0.238399  
         C46       1.0000    0.52170   0.82600   0.73003   Biso      1.000     C          0.271285  
         C47       1.0000    0.53550   0.75330   0.68563   Biso      1.000     C          0.506221  
         C48       1.0000    0.77920   0.47890   0.81733   Biso      1.000     C          -0.11485  
         C49       1.0000    0.71130   0.48560   0.77863   Biso      1.000     C          -0.142334           
         C50       1.0000    0.63510   0.37320   0.75198   Biso      1.000     C          0.061472  
         C51       1.0000    0.62680   0.25420   0.76413   Biso      1.000     C          -0.115715           
         C52       1.0000    0.45120   0.09010   0.23477   Biso      1.000     C          -0.543164           
         C53       1.0000    0.36490   0.73810   0.91468   Biso      1.000     C          0.061417  
         C54       1.0000    0.87820   0.15450   0.54770   Biso      1.000     C          0.280629  
         C55       1.0000    0.47890   0.77920   0.18267   Biso      1.000     C          -0.114848           
         C56       1.0000    0.79720   0.57290   0.22207   Biso      1.000     C          0.238398  
         C57       1.0000    0.82600   0.52170   0.26997   Biso      1.000     C          0.271286  
         C58       1.0000    0.75330   0.53550   0.31437   Biso      1.000     C          0.506221  
         C59       1.0000    0.37320   0.62740   0.90253   Biso      1.000     C          -0.115847           
         C60       1.0000    0.48560   0.71130   0.22137   Biso      1.000     C          -0.142336           
         C61       1.0000    0.37320   0.63510   0.24802   Biso      1.000     C          0.061476  
         C62       1.0000    0.84550   0.72370   0.21437   Biso      1.000     C          0.28089   
         C63       1.0000    0.25420   0.62680   0.23587   Biso      1.000     C          -0.115717           
         C64       1.0000    0.35990   0.77090   0.17060   Biso      1.000     C          0.111037  
         C65       1.0000    0.35510   0.84420   0.13177   Biso      1.000     C          0.064678  
         C66       1.0000    0.36110   0.90990   0.09857   Biso      1.000     C          -0.543333           
         C67       1.0000    0.78220   0.24670   0.64770   Biso      1.000     C          0.506413  
         C68       1.0000    0.69570   0.17400   0.60330   Biso      1.000     C          0.271217  
         C69       1.0000    0.82230   0.00120   0.54690   Biso      1.000     C          0.491753  
         C70       1.0000    0.24760   0.69480   0.19717   Biso      1.000     C          -0.123242           
         C71       1.0000    0.99880   0.82110   0.21357   Biso      1.000     C          0.491687  
         C72       1.0000    0.62680   0.26190   0.41865   Biso      1.000     C          0.061352  
         C73       1.0000    0.22570   0.51440   0.55470   Biso      1.000     C          -0.142256           
         C74       1.0000    0.09010   0.45120   0.76523   Biso      1.000     C          -0.543311           
         C75       1.0000    0.15580   0.51090   0.79843   Biso      1.000     C          0.064718  
         C76       1.0000    0.30030   0.52110   0.51600   Biso      1.000     C          -0.114933           
         C77       1.0000    0.22910   0.58900   0.83726   Biso      1.000     C          0.110915  
         C78       1.0000    0.30520   0.55280   0.86383   Biso      1.000     C          -0.123254           
         F1        1.0000    0.21680   0.61290   0.40430   Biso      1.000     F          -0.151729           
         F2        1.0000    0.33640   0.84350   0.45120   Biso      1.000     F          -0.157071           
         F3        1.0000    0.14760   0.68350   0.47940   Biso      1.000     F          -0.152361           
         F4        1.0000    0.19880   0.93550   0.49340   Biso      1.000     F          -0.155958           
         F5        1.0000    0.21100   0.96690   0.41950   Biso      1.000     F          -0.136324           
         F6        1.0000    0.75590   0.78900   0.75283   Biso      1.000     F          -0.136285           
         F7        1.0000    0.73670   0.80120   0.82673   Biso      1.000     F          -0.156017           
         F8        1.0000    0.50710   0.66360   0.78453   Biso      1.000     F          -0.157064           
         F9        1.0000    0.04850   0.63740   0.39260   Biso      1.000     F          -0.102229           
         F10       1.0000    0.39610   0.78320   0.73763   Biso      1.000     F          -0.151754           
         F11       1.0000    0.46410   0.31650   0.85393   Biso      1.000     F          -0.152341           
         F12       1.0000    0.49290   0.15650   0.88213   Biso      1.000     F          -0.157062           
         F13       1.0000    0.60390   0.38710   0.92903   Biso      1.000     F          -0.151667           
         F14       1.0000    0.58890   0.95150   0.72593   Biso      1.000     F          -0.102263           
         F15       1.0000    0.41110   0.36260   0.94073   Biso      1.000     F          -0.102117           
         F16       1.0000    0.53590   0.85240   0.81273   Biso      1.000     F          -0.15229  
         F17       1.0000    0.24410   0.03310   0.91383   Biso      1.000     F          -0.136312           
         F18       1.0000    0.26330   0.06450   0.83993   Biso      1.000     F          -0.155949           
         F19       1.0000    0.78320   0.39610   0.26237   Biso      1.000     F          -0.151752           
         F20       1.0000    0.03310   0.24410   0.08617   Biso      1.000     F          -0.136312           
         F21       1.0000    0.06450   0.26330   0.16007   Biso      1.000     F          -0.155949           
         F22       1.0000    0.31650   0.46410   0.14607   Biso      1.000     F          -0.152342           
         F23       1.0000    0.15650   0.49290   0.11787   Biso      1.000     F          -0.157061           
         F24       1.0000    0.38710   0.60390   0.07097   Biso      1.000     F          -0.151666           
         F25       1.0000    0.36260   0.41110   0.05927   Biso      1.000     F          -0.102117           
         F26       1.0000    0.63740   0.04850   0.60740   Biso      1.000     F          -0.102229           
         F27       1.0000    0.61290   0.21680   0.59570   Biso      1.000     F          -0.151729           
         F28       1.0000    0.84350   0.33640   0.54880   Biso      1.000     F          -0.157071           
         F29       1.0000    0.68350   0.14760   0.52060   Biso      1.000     F          -0.152362           
         F30       1.0000    0.95150   0.58890   0.27407   Biso      1.000     F          -0.102263           
         F31       1.0000    0.93550   0.19880   0.50660   Biso      1.000     F          -0.155959           
         F32       1.0000    0.96690   0.21100   0.58050   Biso      1.000     F          -0.136323           
         F33       1.0000    0.78900   0.75590   0.24717   Biso      1.000     F          -0.136285           
         F34       1.0000    0.80120   0.73670   0.17327   Biso      1.000     F          -0.156017           
         F35       1.0000    0.85240   0.53590   0.18727   Biso      1.000     F          -0.15229  
         F36       1.0000    0.66360   0.50710   0.21547   Biso      1.000     F          -0.157063           
         H1        1.0000    0.27610   0.44590   0.49820   Biso      1.000     H          0.13287   
         H2        1.0000    0.28310   0.84830   0.89623   Biso      1.000     H          0.125089  
         H3        1.0000    0.84830   0.28310   0.10377   Biso      1.000     H          0.125089  
         H4        1.0000    0.60310   0.42410   0.07967   Biso      1.000     H          0.136269  
         H5        1.0000    0.47870   0.31080   0.14427   Biso      1.000     H          0.132671  
         H6        1.0000    0.16980   0.72390   0.83153   Biso      1.000     H          0.132862  
         H7        1.0000    0.16790   0.68920   0.18907   Biso      1.000     H          0.132608  
         H8        1.0000    0.31080   0.47870   0.85573   Biso      1.000     H          0.13267   
         H9        1.0000    0.72390   0.16980   0.16847   Biso      1.000     H          0.132863  
         H10       1.0000    0.83020   0.55410   0.83513   Biso      1.000     H          0.132814  
         H11       1.0000    0.42410   0.60310   0.92033   Biso      1.000     H          0.136268  
         H12       1.0000    0.17900   0.57590   0.25367   Biso      1.000     H          0.136073  
         H13       1.0000    0.15170   0.43480   0.56290   Biso      1.000     H          0.124912  
         H14       1.0000    0.57590   0.17900   0.74633   Biso      1.000     H          0.136073  
         H15       1.0000    0.68920   0.16790   0.81093   Biso      1.000     H          0.132607  
         H16       1.0000    0.56520   0.71690   0.22957   Biso      1.000     H          0.124936  
         H17       1.0000    0.55410   0.83020   0.16487   Biso      1.000     H          0.132816  
         H18       1.0000    0.52130   0.83210   0.52240   Biso      1.000     H          0.132661  
         H19       1.0000    0.83210   0.52130   0.47760   Biso      1.000     H          0.132662  
         H20       1.0000    0.82100   0.39690   0.41300   Biso      1.000     H          0.136174  
         H21       1.0000    0.39690   0.82100   0.58700   Biso      1.000     H          0.136174  
         H22       1.0000    0.44590   0.27610   0.50180   Biso      1.000     H          0.132871  
         H23       1.0000    0.43480   0.15170   0.43710   Biso      1.000     H          0.124912  
         H24       1.0000    0.71690   0.56520   0.77043   Biso      1.000     H          0.124936  
         N1        1.0000    0.43280   0.81620   0.95583   Biso      1.000     N          0.538482  
         N2        1.0000    0.81620   0.43280   0.04417   Biso      1.000     N          0.53848   
         N3        1.0000    0.18380   0.61660   0.62250   Biso      1.000     N          0.538712  
         N4        1.0000    0.38340   0.56720   0.28917   Biso      1.000     N          0.53875   
         N5        1.0000    0.56720   0.38340   0.71083   Biso      1.000     N          0.538757  
         N6        1.0000    0.61660   0.18380   0.37750   Biso      1.000     N          0.538713  
         O1        1.0000    0.81670   0.63720   0.33639   Biso      1.000     O          -0.44006  
         O2        1.0000    0.63840   0.44610   0.32127   Biso      1.000     O          -0.52576  
         O3        1.0000    0.04760   0.87900   0.25020   Biso      1.000     O          -0.474752           
         O4        1.0000    0.36280   0.17950   0.00305   Biso      1.000     O          -0.440159           
         O5        1.0000    0.17420   0.23290   0.84383   Biso      1.000     O          -0.538296           
         O6        1.0000    0.12100   0.16860   0.91686   Biso      1.000     O          -0.4747   
         O7        1.0000    0.55390   0.19230   0.98793   Biso      1.000     O          -0.52594  
         O8        1.0000    0.78620   0.49550   0.02157   Biso      1.000     O          -0.33691  
         O9        1.0000    0.90890   0.41580   0.03507   Biso      1.000     O          -0.407673           
         O10       1.0000    0.17950   0.36280   0.99695   Biso      1.000     O          -0.44016  
         O11       1.0000    0.19230   0.55390   0.01207   Biso      1.000     O          -0.525941           
         O12       1.0000    0.16860   0.12100   0.08314   Biso      1.000     O          -0.474698           
         O13       1.0000    0.23290   0.17420   0.15617   Biso      1.000     O          -0.538296           
         O14       1.0000    0.41580   0.90890   0.96493   Biso      1.000     O          -0.407672           
         O15       1.0000    0.05870   0.82580   0.17717   Biso      1.000     O          -0.538363           
         O16       1.0000    0.49310   0.58420   0.29827   Biso      1.000     O          -0.407791           
         O17       1.0000    0.09110   0.50690   0.63160   Biso      1.000     O          -0.407771           
         O18       1.0000    0.21380   0.70930   0.64510   Biso      1.000     O          -0.337069           
         O19       1.0000    0.94130   0.76710   0.48950   Biso      1.000     O          -0.538331           
         O20       1.0000    0.95240   0.83140   0.41647   Biso      1.000     O          -0.474754           
         O21       1.0000    0.36160   0.80770   0.34540   Biso      1.000     O          -0.525922           
         O22       1.0000    0.18330   0.82050   0.33028   Biso      1.000     O          -0.440114           
         O23       1.0000    0.50450   0.29070   0.68823   Biso      1.000     O          -0.33711  
         O24       1.0000    0.58420   0.49310   0.70173   Biso      1.000     O          -0.407792           
         O25       1.0000    0.63720   0.81670   0.66361   Biso      1.000     O          -0.440059           
         O26       1.0000    0.29070   0.50450   0.31177   Biso      1.000     O          -0.337108           
         O27       1.0000    0.44610   0.63840   0.67873   Biso      1.000     O          -0.52576  
         O28       1.0000    0.82580   0.05870   0.82283   Biso      1.000     O          -0.538364           
         O29       1.0000    0.50690   0.09110   0.36840   Biso      1.000     O          -0.40777  
         O30       1.0000    0.70930   0.21380   0.35490   Biso      1.000     O          -0.337068           
         O31       1.0000    0.76710   0.94130   0.51050   Biso      1.000     O          -0.538332           
         O32       1.0000    0.83140   0.95240   0.58353   Biso      1.000     O          -0.474752           
         O33       1.0000    0.80770   0.36160   0.65460   Biso      1.000     O          -0.525924           
         O34       1.0000    0.82050   0.18330   0.66972   Biso      1.000     O          -0.440116           
         O35       1.0000    0.87900   0.04760   0.74980   Biso      1.000     O          -0.474754           
         O36       1.0000    0.49550   0.78620   0.97843   Biso      1.000     O          -0.33691 