
##########################################################################
#               Crystallographic Information Format file
#               Produced by PyCifRW module
#
#  This is a CIF file.  CIF has been adopted by the International
#  Union of Crystallography as the standard for data archiving and
#  transmission.
#
#  For information on this file format, follow the CIF links at
#  http://www.iucr.org
##########################################################################

data_image0

_cell_length_a                          11.722
_cell_length_b                          11.722
_cell_length_c                          23.74
_cell_angle_alpha                       90
_cell_angle_beta                        90
_cell_angle_gamma                       90
_symmetry_space_group_name_H-M          'P 1'
_symmetry_int_tables_number             1
loop_
  _symmetry_equiv_pos_as_xyz
         'x, y, z' 
loop_
  _atom_site_label
  _atom_site_occupancy
  _atom_site_fract_x
  _atom_site_fract_y
  _atom_site_fract_z
  _atom_site_thermal_displace_type
  _atom_site_B_iso_or_equiv
  _atom_site_type_symbol
  _atom_site_charge
         Zn1       1.0000    0.38117   0.00000   0.00000   Biso      1.000     Zn          0.969993  
         Zn2       1.0000    0.61883   0.00000   0.00000   Biso      1.000     Zn          0.970395  
         Zn3       1.0000    0.00000   0.38117   0.50000   Biso      1.000     Zn          0.969993  
         Zn4       1.0000    0.00000   0.61883   0.50000   Biso      1.000     Zn          0.970395  
         O1        1.0000    0.40027   0.11848   0.05915   Biso      1.000     O          -0.495259           
         O2        1.0000    0.59973   0.88152   0.94085   Biso      1.000     O          -0.495291           
         O3        1.0000    0.59973   0.88152   0.05915   Biso      1.000     O          -0.495287           
         O4        1.0000    0.40027   0.11848   0.94085   Biso      1.000     O          -0.495255           
         O5        1.0000    0.88152   0.40027   0.55915   Biso      1.000     O          -0.495261           
         O6        1.0000    0.11848   0.59973   0.44085   Biso      1.000     O          -0.495292           
         O7        1.0000    0.11848   0.59973   0.55915   Biso      1.000     O          -0.495285           
         O8        1.0000    0.88152   0.40027   0.44085   Biso      1.000     O          -0.495254           
         O9        1.0000    0.59973   0.11848   0.94085   Biso      1.000     O          -0.495332           
         O10       1.0000    0.40027   0.88152   0.05915   Biso      1.000     O          -0.495301           
         O11       1.0000    0.40027   0.88152   0.94085   Biso      1.000     O          -0.49526  
         O12       1.0000    0.59973   0.11848   0.05915   Biso      1.000     O          -0.495291           
         O13       1.0000    0.11848   0.40027   0.44085   Biso      1.000     O          -0.495284           
         O14       1.0000    0.88152   0.59973   0.55915   Biso      1.000     O          -0.495315           
         O15       1.0000    0.88152   0.59973   0.44085   Biso      1.000     O          -0.495308           
         O16       1.0000    0.11848   0.40027   0.55915   Biso      1.000     O          -0.495277           
         C1        1.0000    0.50000   0.50000   0.25000   Biso      1.000     C          -0.000198           
         C2        1.0000    0.50000   0.50000   0.75000   Biso      1.000     C          -0.000198           
         C3        1.0000    0.50000   0.40030   0.21002   Biso      1.000     C          0.07185   
         C4        1.0000    0.50000   0.59970   0.78998   Biso      1.000     C          0.07185   
         C5        1.0000    0.50000   0.59970   0.21002   Biso      1.000     C          0.071841  
         C6        1.0000    0.50000   0.40030   0.78998   Biso      1.000     C          0.071841  
         C7        1.0000    0.59970   0.50000   0.71002   Biso      1.000     C          0.071854  
         C8        1.0000    0.40030   0.50000   0.28998   Biso      1.000     C          0.071854  
         C9        1.0000    0.40030   0.50000   0.71002   Biso      1.000     C          0.071846  
         C10       1.0000    0.59970   0.50000   0.28998   Biso      1.000     C          0.071846  
         C11       1.0000    0.39674   0.35749   0.18789   Biso      1.000     C          -0.141396           
         C12       1.0000    0.60326   0.64251   0.81211   Biso      1.000     C          -0.141396           
         C13       1.0000    0.60326   0.64251   0.18789   Biso      1.000     C          -0.141401           
         C14       1.0000    0.39674   0.35749   0.81211   Biso      1.000     C          -0.1414   
         C15       1.0000    0.64251   0.39674   0.68789   Biso      1.000     C          -0.141396           
         C16       1.0000    0.35749   0.60326   0.31211   Biso      1.000     C          -0.141396           
         C17       1.0000    0.35749   0.60326   0.68789   Biso      1.000     C          -0.141402           
         C18       1.0000    0.64251   0.39674   0.31211   Biso      1.000     C          -0.141401           
         C19       1.0000    0.60326   0.35749   0.81211   Biso      1.000     C          -0.141393           
         C20       1.0000    0.39674   0.64251   0.18789   Biso      1.000     C          -0.141393           
         C21       1.0000    0.39674   0.64251   0.81211   Biso      1.000     C          -0.141402           
         C22       1.0000    0.60326   0.35749   0.18789   Biso      1.000     C          -0.141402           
         C23       1.0000    0.35749   0.39674   0.31211   Biso      1.000     C          -0.141395           
         C24       1.0000    0.64251   0.60326   0.68789   Biso      1.000     C          -0.141396           
         C25       1.0000    0.64251   0.60326   0.31211   Biso      1.000     C          -0.141401           
         C26       1.0000    0.35749   0.39674   0.68789   Biso      1.000     C          -0.1414   
         C27       1.0000    0.39628   0.27603   0.14507   Biso      1.000     C          -0.088373           
         C28       1.0000    0.60372   0.72397   0.85493   Biso      1.000     C          -0.088372           
         C29       1.0000    0.60372   0.72397   0.14507   Biso      1.000     C          -0.088336           
         C30       1.0000    0.39628   0.27603   0.85493   Biso      1.000     C          -0.088338           
         C31       1.0000    0.72397   0.39628   0.64507   Biso      1.000     C          -0.088374           
         C32       1.0000    0.27603   0.60372   0.35493   Biso      1.000     C          -0.088373           
         C33       1.0000    0.27603   0.60372   0.64507   Biso      1.000     C          -0.088335           
         C34       1.0000    0.72397   0.39628   0.35493   Biso      1.000     C          -0.088337           
         C35       1.0000    0.60372   0.27603   0.85493   Biso      1.000     C          -0.088245           
         C36       1.0000    0.39628   0.72397   0.14507   Biso      1.000     C          -0.088246           
         C37       1.0000    0.39628   0.72397   0.85493   Biso      1.000     C          -0.088183           
         C38       1.0000    0.60372   0.27603   0.14507   Biso      1.000     C          -0.088182           
         C39       1.0000    0.27603   0.39628   0.35493   Biso      1.000     C          -0.088232           
         C40       1.0000    0.72397   0.60372   0.64507   Biso      1.000     C          -0.08823  
         C41       1.0000    0.72397   0.60372   0.35493   Biso      1.000     C          -0.088196           
         C42       1.0000    0.27603   0.39628   0.64507   Biso      1.000     C          -0.088197           
         C43       1.0000    0.50000   0.23463   0.12280   Biso      1.000     C          -0.078559           
         C44       1.0000    0.50000   0.76537   0.87720   Biso      1.000     C          -0.078556           
         C45       1.0000    0.50000   0.76537   0.12280   Biso      1.000     C          -0.078433           
         C46       1.0000    0.50000   0.23463   0.87720   Biso      1.000     C          -0.078433           
         C47       1.0000    0.76537   0.50000   0.62280   Biso      1.000     C          -0.078553           
         C48       1.0000    0.23463   0.50000   0.37720   Biso      1.000     C          -0.07855  
         C49       1.0000    0.23463   0.50000   0.62280   Biso      1.000     C          -0.078439           
         C50       1.0000    0.76537   0.50000   0.37720   Biso      1.000     C          -0.078439           
         C51       1.0000    0.50000   0.15019   0.07685   Biso      1.000     C          0.55531   
         C52       1.0000    0.50000   0.84981   0.92315   Biso      1.000     C          0.555309  
         C53       1.0000    0.50000   0.84981   0.07685   Biso      1.000     C          0.555476  
         C54       1.0000    0.50000   0.15019   0.92315   Biso      1.000     C          0.555476  
         C55       1.0000    0.84981   0.50000   0.57685   Biso      1.000     C          0.555312  
         C56       1.0000    0.15019   0.50000   0.42315   Biso      1.000     C          0.555312  
         C57       1.0000    0.15019   0.50000   0.57685   Biso      1.000     C          0.555473  
         C58       1.0000    0.84981   0.50000   0.42315   Biso      1.000     C          0.555473  
         H1        1.0000    0.31695   0.39098   0.20425   Biso      1.000     H          0.100238  
         H2        1.0000    0.68305   0.60902   0.79575   Biso      1.000     H          0.100238  
         H3        1.0000    0.68305   0.60902   0.20425   Biso      1.000     H          0.100239  
         H4        1.0000    0.31695   0.39098   0.79575   Biso      1.000     H          0.100239  
         H5        1.0000    0.60902   0.31695   0.70425   Biso      1.000     H          0.100238  
         H6        1.0000    0.39098   0.68305   0.29575   Biso      1.000     H          0.100238  
         H7        1.0000    0.39098   0.68305   0.70425   Biso      1.000     H          0.100239  
         H8        1.0000    0.60902   0.31695   0.29575   Biso      1.000     H          0.100239  
         H9        1.0000    0.68305   0.39098   0.79575   Biso      1.000     H          0.100283  
         H10       1.0000    0.31695   0.60902   0.20425   Biso      1.000     H          0.100283  
         H11       1.0000    0.31695   0.60902   0.79575   Biso      1.000     H          0.100284  
         H12       1.0000    0.68305   0.39098   0.20425   Biso      1.000     H          0.100284  
         H13       1.0000    0.39098   0.31695   0.29575   Biso      1.000     H          0.100283  
         H14       1.0000    0.60902   0.68305   0.70425   Biso      1.000     H          0.100283  
         H15       1.0000    0.60902   0.68305   0.29575   Biso      1.000     H          0.100284  
         H16       1.0000    0.39098   0.31695   0.70425   Biso      1.000     H          0.100284  
         H17       1.0000    0.31819   0.24028   0.12754   Biso      1.000     H          0.107839  
         H18       1.0000    0.68181   0.75972   0.87246   Biso      1.000     H          0.107841  
         H19       1.0000    0.68181   0.75972   0.12754   Biso      1.000     H          0.107831  
         H20       1.0000    0.31819   0.24028   0.87246   Biso      1.000     H          0.10783   
         H21       1.0000    0.75972   0.31819   0.62754   Biso      1.000     H          0.107839  
         H22       1.0000    0.24028   0.68181   0.37246   Biso      1.000     H          0.10784   
         H23       1.0000    0.24028   0.68181   0.62754   Biso      1.000     H          0.107831  
         H24       1.0000    0.75972   0.31819   0.37246   Biso      1.000     H          0.10783   
         H25       1.0000    0.68181   0.24028   0.87246   Biso      1.000     H          0.107791  
         H26       1.0000    0.31819   0.75972   0.12754   Biso      1.000     H          0.10779   
         H27       1.0000    0.31819   0.75972   0.87246   Biso      1.000     H          0.107777  
         H28       1.0000    0.68181   0.24028   0.12754   Biso      1.000     H          0.107778  
         H29       1.0000    0.24028   0.31819   0.37246   Biso      1.000     H          0.107788  
         H30       1.0000    0.75972   0.68181   0.62754   Biso      1.000     H          0.107789  
         H31       1.0000    0.75972   0.68181   0.37246   Biso      1.000     H          0.10778   
         H32       1.0000    0.24028   0.31819   0.62754   Biso      1.000     H          0.107779 