
##########################################################################
#               Crystallographic Information Format file
#               Produced by PyCifRW module
#
#  This is a CIF file.  CIF has been adopted by the International
#  Union of Crystallography as the standard for data archiving and
#  transmission.
#
#  For information on this file format, follow the CIF links at
#  http://www.iucr.org
##########################################################################

data_image0

_cell_length_a                          10.0483
_cell_length_b                          13.4969
_cell_length_c                          16.7346
_cell_angle_alpha                       90
_cell_angle_beta                        93.683
_cell_angle_gamma                       90
_symmetry_space_group_name_H-M          'P 1'
_symmetry_int_tables_number             1
loop_
  _symmetry_equiv_pos_as_xyz
         'x, y, z' 
loop_
  _atom_site_label
  _atom_site_occupancy
  _atom_site_fract_x
  _atom_site_fract_y
  _atom_site_fract_z
  _atom_site_thermal_displace_type
  _atom_site_B_iso_or_equiv
  _atom_site_type_symbol
  _atom_site_charge
         C1        1.0000    0.25680   0.05870   0.79501   Biso      1.000     C          -0.093264           
         C2        1.0000    0.75680   0.44130   0.29501   Biso      1.000     C          -0.093264           
         C3        1.0000    0.74320   0.94130   0.20499   Biso      1.000     C          -0.093268           
         C4        1.0000    0.24320   0.55870   0.70499   Biso      1.000     C          -0.093264           
         C5        1.0000    0.12800   0.20930   0.32167   Biso      1.000     C          -0.136262           
         C6        1.0000    0.31670   0.59070   0.77467   Biso      1.000     C          -0.101105           
         C7        1.0000    0.62910   0.39058   0.82861   Biso      1.000     C          -0.136665           
         C8        1.0000    0.62800   0.29070   0.82167   Biso      1.000     C          -0.136232           
         C9        1.0000    0.18390   0.24270   0.25145   Biso      1.000     C          -0.116299           
         C10       1.0000    0.68390   0.25730   0.75145   Biso      1.000     C          -0.116302           
         C11       1.0000    0.69920   0.82260   0.86814   Biso      1.000     C          0.668138  
         C12       1.0000    0.10860   0.62987   0.58480   Biso      1.000     C          0.675878  
         C13       1.0000    0.31580   0.69030   0.78303   Biso      1.000     C          -0.092239           
         C14       1.0000    0.37700   0.74890   0.85103   Biso      1.000     C          0.64811   
         C15       1.0000    0.30080   0.17740   0.13186   Biso      1.000     C          0.668137  
         C16       1.0000    0.22810   0.16760   0.20657   Biso      1.000     C          -0.121046           
         C17       1.0000    0.12910   0.10942   0.32861   Biso      1.000     C          -0.136635           
         C18       1.0000    0.08180   0.04935   0.39635   Biso      1.000     C          0.696078  
         C19       1.0000    0.58180   0.45065   0.89635   Biso      1.000     C          0.696081  
         C20       1.0000    0.87700   0.75110   0.35103   Biso      1.000     C          0.648114  
         C21       1.0000    0.81580   0.80970   0.28303   Biso      1.000     C          -0.092269           
         C22       1.0000    0.18860   0.63606   0.66091   Biso      1.000     C          -0.141576           
         C23       1.0000    0.68330   0.40930   0.22533   Biso      1.000     C          -0.101105           
         C24       1.0000    0.77190   0.83240   0.79343   Biso      1.000     C          -0.121062           
         C25       1.0000    0.37200   0.70930   0.17833   Biso      1.000     C          -0.136264           
         C26       1.0000    0.80080   0.32260   0.63186   Biso      1.000     C          0.668137  
         C27       1.0000    0.18330   0.09070   0.72533   Biso      1.000     C          -0.101105           
         C28       1.0000    0.81670   0.90930   0.27467   Biso      1.000     C          -0.101077           
         C29       1.0000    0.87200   0.79070   0.67833   Biso      1.000     C          -0.136264           
         C30       1.0000    0.72810   0.33240   0.70657   Biso      1.000     C          -0.121046           
         C31       1.0000    0.81610   0.75730   0.74855   Biso      1.000     C          -0.116283           
         C32       1.0000    0.39140   0.12987   0.91520   Biso      1.000     C          0.675878  
         C33       1.0000    0.31140   0.13606   0.83909   Biso      1.000     C          -0.141576           
         C34       1.0000    0.18420   0.19030   0.71697   Biso      1.000     C          -0.092239           
         C35       1.0000    0.12300   0.24890   0.64897   Biso      1.000     C          0.64811   
         C36       1.0000    0.19920   0.67740   0.36814   Biso      1.000     C          0.668139  
         C37       1.0000    0.27190   0.66760   0.29343   Biso      1.000     C          -0.121062           
         C38       1.0000    0.37090   0.60942   0.17139   Biso      1.000     C          -0.136635           
         C39       1.0000    0.41820   0.54935   0.10365   Biso      1.000     C          0.696078  
         C40       1.0000    0.91820   0.95065   0.60365   Biso      1.000     C          0.696078  
         C41       1.0000    0.62300   0.25110   0.14897   Biso      1.000     C          0.648111  
         C42       1.0000    0.68420   0.30970   0.21697   Biso      1.000     C          -0.092239           
         C43       1.0000    0.81140   0.36394   0.33909   Biso      1.000     C          -0.141576           
         C44       1.0000    0.89140   0.37013   0.41520   Biso      1.000     C          0.675877  
         C45       1.0000    0.31610   0.74270   0.24855   Biso      1.000     C          -0.116283           
         C46       1.0000    0.87090   0.89058   0.67139   Biso      1.000     C          -0.136634           
         C47       1.0000    0.68860   0.86394   0.16091   Biso      1.000     C          -0.141575           
         C48       1.0000    0.60860   0.87013   0.08480   Biso      1.000     C          0.675877  
         H1        1.0000    0.73280   0.00750   0.19040   Biso      1.000     H          0.135193  
         H2        1.0000    0.59390   0.24850   0.85930   Biso      1.000     H          0.12314   
         H3        1.0000    0.36110   0.54800   0.81100   Biso      1.000     H          0.139752  
         H4        1.0000    0.81020   0.69080   0.76260   Biso      1.000     H          0.134064  
         H5        1.0000    0.90610   0.74850   0.64070   Biso      1.000     H          0.123142  
         H6        1.0000    0.13890   0.04800   0.68900   Biso      1.000     H          0.139752  
         H7        1.0000    0.68980   0.19080   0.73740   Biso      1.000     H          0.134065  
         H8        1.0000    0.23280   0.49250   0.69040   Biso      1.000     H          0.135193  
         H9        1.0000    0.26720   0.99250   0.80960   Biso      1.000     H          0.135193  
         H10       1.0000    0.76720   0.50750   0.30960   Biso      1.000     H          0.135193  
         H11       1.0000    0.18980   0.30920   0.23740   Biso      1.000     H          0.134065  
         H12       1.0000    0.31020   0.80920   0.26260   Biso      1.000     H          0.134064  
         H13       1.0000    0.40610   0.75150   0.14070   Biso      1.000     H          0.123142  
         H14       1.0000    0.63890   0.45200   0.18900   Biso      1.000     H          0.139752  
         H15       1.0000    0.86110   0.95200   0.31100   Biso      1.000     H          0.139751  
         H16       1.0000    0.09390   0.25150   0.35930   Biso      1.000     H          0.123142  
         Mg1       1.0000    0.52930   0.10289   0.05125   Biso      1.000     Mg          1.408644  
         Mg2       1.0000    0.97070   0.60289   0.44875   Biso      1.000     Mg          1.408644  
         Mg3       1.0000    0.90775   0.15622   0.52570   Biso      1.000     Mg          1.484952  
         Mg4       1.0000    0.02930   0.39711   0.55125   Biso      1.000     Mg          1.408644  
         Mg5       1.0000    0.40775   0.34378   0.02570   Biso      1.000     Mg          1.484952  
         Mg6       1.0000    0.09225   0.84378   0.47430   Biso      1.000     Mg          1.484952  
         Mg7       1.0000    0.47070   0.89711   0.94875   Biso      1.000     Mg          1.408644  
         Mg8       1.0000    0.59225   0.65622   0.97430   Biso      1.000     Mg          1.484952  
         O1        1.0000    0.07700   0.20320   0.58853   Biso      1.000     O          -0.683483           
         O2        1.0000    0.69900   0.73871   0.89861   Biso      1.000     O          -0.662706           
         O3        1.0000    0.64369   0.89941   0.89329   Biso      1.000     O          -0.697169           
         O4        1.0000    0.43307   0.04549   0.93882   Biso      1.000     O          -0.713329           
         O5        1.0000    0.12260   0.34113   0.65495   Biso      1.000     O          -0.650338           
         O6        1.0000    0.42062   0.20499   0.95628   Biso      1.000     O          -0.699438           
         O7        1.0000    0.88640   0.03934   0.60148   Biso      1.000     O          -0.679169           
         O8        1.0000    0.48450   0.59248   0.05543   Biso      1.000     O          -0.695931           
         O9        1.0000    0.19900   0.76129   0.39861   Biso      1.000     O          -0.662707           
         O10       1.0000    0.38640   0.46066   0.10148   Biso      1.000     O          -0.679169           
         O11       1.0000    0.57700   0.29680   0.08853   Biso      1.000     O          -0.683483           
         O12       1.0000    0.98450   0.90752   0.55543   Biso      1.000     O          -0.695931           
         O13       1.0000    0.92062   0.29501   0.45628   Biso      1.000     O          -0.699438           
         O14       1.0000    0.14369   0.60059   0.39329   Biso      1.000     O          -0.697169           
         O15       1.0000    0.61360   0.53934   0.89852   Biso      1.000     O          -0.679168           
         O16       1.0000    0.07938   0.70499   0.54372   Biso      1.000     O          -0.699438           
         O17       1.0000    0.37740   0.84113   0.84505   Biso      1.000     O          -0.650337           
         O18       1.0000    0.06693   0.54549   0.56118   Biso      1.000     O          -0.713329           
         O19       1.0000    0.85631   0.39941   0.60671   Biso      1.000     O          -0.69717  
         O20       1.0000    0.80100   0.23871   0.60139   Biso      1.000     O          -0.662706           
         O21       1.0000    0.51550   0.40752   0.94457   Biso      1.000     O          -0.695931           
         O22       1.0000    0.62260   0.15887   0.15495   Biso      1.000     O          -0.650337           
         O23       1.0000    0.92300   0.79680   0.41147   Biso      1.000     O          -0.683483           
         O24       1.0000    0.01550   0.09248   0.44457   Biso      1.000     O          -0.695931           
         O25       1.0000    0.30100   0.26129   0.10139   Biso      1.000     O          -0.662706           
         O26       1.0000    0.35631   0.10059   0.10671   Biso      1.000     O          -0.69717  
         O27       1.0000    0.56693   0.95451   0.06118   Biso      1.000     O          -0.713329           
         O28       1.0000    0.87740   0.65887   0.34505   Biso      1.000     O          -0.650337           
         O29       1.0000    0.57938   0.79501   0.04372   Biso      1.000     O          -0.699438           
         O30       1.0000    0.11360   0.96066   0.39852   Biso      1.000     O          -0.679169           
         O31       1.0000    0.42300   0.70320   0.91147   Biso      1.000     O          -0.683483           
         O32       1.0000    0.93307   0.45451   0.43882   Biso      1.000     O          -0.713329           
         S1        1.0000    0.22793   0.74797   0.70520   Biso      1.000     S          0.162752  
         S2        1.0000    0.77207   0.25203   0.29480   Biso      1.000     S          0.162752  
         S3        1.0000    0.79854   0.94539   0.75008   Biso      1.000     S          0.143289  
         S4        1.0000    0.70146   0.44539   0.74992   Biso      1.000     S          0.14329   
         S5        1.0000    0.20146   0.05461   0.24992   Biso      1.000     S          0.143287  
         S6        1.0000    0.72793   0.75203   0.20520   Biso      1.000     S          0.162755  
         S7        1.0000    0.27207   0.24797   0.79480   Biso      1.000     S          0.162752  
         S8        1.0000    0.29854   0.55461   0.25008   Biso      1.000     S          0.143289 