
##########################################################################
#               Crystallographic Information Format file
#               Produced by PyCifRW module
#
#  This is a CIF file.  CIF has been adopted by the International
#  Union of Crystallography as the standard for data archiving and
#  transmission.
#
#  For information on this file format, follow the CIF links at
#  http://www.iucr.org
##########################################################################

data_image0

_cell_length_a                          24.934
_cell_length_b                          13.2275
_cell_length_c                          16.234
_cell_angle_alpha                       90
_cell_angle_beta                        127.52
_cell_angle_gamma                       90
_symmetry_space_group_name_H-M          'P 1'
_symmetry_int_tables_number             1
loop_
  _symmetry_equiv_pos_as_xyz
         'x, y, z' 
loop_
  _atom_site_label
  _atom_site_occupancy
  _atom_site_fract_x
  _atom_site_fract_y
  _atom_site_fract_z
  _atom_site_thermal_displace_type
  _atom_site_B_iso_or_equiv
  _atom_site_type_symbol
  _atom_site_charge
         C1        1.0000    0.85310   0.60480   0.43280   Biso      1.000     C          -0.023087           
         C2        1.0000    0.36440   0.96190   0.31590   Biso      1.000     C          -0.015382           
         C3        1.0000    0.30330   0.99370   0.28670   Biso      1.000     C          -0.099466           
         C4        1.0000    0.29820   0.06340   0.34680   Biso      1.000     C          -0.099511           
         C5        1.0000    0.34690   0.17610   0.49730   Biso      1.000     C          0.627296  
         C6        1.0000    0.93110   0.00220   0.44000   Biso      1.000     C          -0.102642           
         C7        1.0000    0.37210   0.88510   0.25660   Biso      1.000     C          0.630576  
         C8        1.0000    0.03170   0.05170   0.46690   Biso      1.000     C          -0.106584           
         C9        1.0000    0.96240   0.05160   0.40520   Biso      1.000     C          -0.008212           
         C10       1.0000    0.92220   0.10610   0.30420   Biso      1.000     C          0.60624   
         C11       1.0000    0.87210   0.61490   0.75660   Biso      1.000     C          0.630575  
         C12       1.0000    0.84690   0.32390   0.99730   Biso      1.000     C          0.627296  
         C13       1.0000    0.42220   0.39390   0.80420   Biso      1.000     C          0.606241  
         C14       1.0000    0.79820   0.43660   0.84680   Biso      1.000     C          -0.09951  
         C15       1.0000    0.46240   0.44840   0.90520   Biso      1.000     C          -0.008223           
         C16       1.0000    0.80330   0.50630   0.78670   Biso      1.000     C          -0.099478           
         C17       1.0000    0.86440   0.53810   0.81590   Biso      1.000     C          -0.015371           
         C18       1.0000    0.53170   0.44830   0.96690   Biso      1.000     C          -0.106574           
         C19       1.0000    0.92070   0.48620   0.89950   Biso      1.000     C          -0.113142           
         C20       1.0000    0.43110   0.49780   0.94000   Biso      1.000     C          -0.102637           
         C21       1.0000    0.91430   0.41010   0.95450   Biso      1.000     C          -0.125872           
         C22       1.0000    0.85310   0.39520   0.93280   Biso      1.000     C          -0.023051           
         C23       1.0000    0.42070   0.01380   0.39950   Biso      1.000     C          -0.113141           
         C24       1.0000    0.14690   0.60480   0.06720   Biso      1.000     C          -0.023087           
         C25       1.0000    0.41430   0.08990   0.45450   Biso      1.000     C          -0.125873           
         C26       1.0000    0.93110   0.99780   0.94000   Biso      1.000     C          -0.10264  
         C27       1.0000    0.92070   0.51380   0.39950   Biso      1.000     C          -0.113143           
         C28       1.0000    0.86440   0.46190   0.31590   Biso      1.000     C          -0.015381           
         C29       1.0000    0.80330   0.49370   0.28670   Biso      1.000     C          -0.09947  
         C30       1.0000    0.79820   0.56340   0.34680   Biso      1.000     C          -0.099483           
         C31       1.0000    0.43110   0.50220   0.44000   Biso      1.000     C          -0.102642           
         C32       1.0000    0.84690   0.67610   0.49730   Biso      1.000     C          0.627299  
         C33       1.0000    0.53170   0.55170   0.46690   Biso      1.000     C          -0.106584           
         C34       1.0000    0.46240   0.55160   0.40520   Biso      1.000     C          -0.008212           
         C35       1.0000    0.42220   0.60610   0.30420   Biso      1.000     C          0.60624   
         C36       1.0000    0.37210   0.11490   0.75660   Biso      1.000     C          0.630575  
         C37       1.0000    0.34690   0.82390   0.99730   Biso      1.000     C          0.627296  
         C38       1.0000    0.87210   0.38510   0.25660   Biso      1.000     C          0.630576  
         C39       1.0000    0.29820   0.93660   0.84680   Biso      1.000     C          -0.09951  
         C40       1.0000    0.92220   0.89390   0.80420   Biso      1.000     C          0.606241  
         C41       1.0000    0.30330   0.00630   0.78670   Biso      1.000     C          -0.099478           
         C42       1.0000    0.36440   0.03810   0.81590   Biso      1.000     C          -0.015371           
         C43       1.0000    0.96240   0.94840   0.90520   Biso      1.000     C          -0.008221           
         C44       1.0000    0.42070   0.98620   0.89950   Biso      1.000     C          -0.113142           
         C45       1.0000    0.03170   0.94830   0.96690   Biso      1.000     C          -0.106574           
         C46       1.0000    0.41430   0.91010   0.95450   Biso      1.000     C          -0.125872           
         C47       1.0000    0.35310   0.89520   0.93280   Biso      1.000     C          -0.023051           
         C48       1.0000    0.35310   0.10480   0.43280   Biso      1.000     C          -0.023051           
         C49       1.0000    0.91430   0.58990   0.45450   Biso      1.000     C          -0.125858           
         C50       1.0000    0.08570   0.58990   0.04550   Biso      1.000     C          -0.125858           
         C51       1.0000    0.13560   0.46190   0.18410   Biso      1.000     C          -0.015381           
         C52       1.0000    0.69670   0.99370   0.21330   Biso      1.000     C          -0.099478           
         C53       1.0000    0.70180   0.06340   0.15320   Biso      1.000     C          -0.099509           
         C54       1.0000    0.65310   0.17610   0.00270   Biso      1.000     C          0.627296  
         C55       1.0000    0.62790   0.88510   0.24340   Biso      1.000     C          0.630575  
         C56       1.0000    0.57780   0.39390   0.69580   Biso      1.000     C          0.606241  
         C57       1.0000    0.06890   0.00220   0.06000   Biso      1.000     C          -0.102642           
         C58       1.0000    0.53760   0.44840   0.59480   Biso      1.000     C          -0.008223           
         C59       1.0000    0.96830   0.05170   0.03310   Biso      1.000     C          -0.106584           
         C60       1.0000    0.03760   0.05160   0.09480   Biso      1.000     C          -0.008212           
         C61       1.0000    0.07930   0.51380   0.10050   Biso      1.000     C          -0.113143           
         C62       1.0000    0.07780   0.10610   0.19580   Biso      1.000     C          0.60624   
         C63       1.0000    0.15310   0.32390   0.50270   Biso      1.000     C          0.627296  
         C64       1.0000    0.46830   0.44830   0.53310   Biso      1.000     C          -0.106574           
         C65       1.0000    0.20180   0.43660   0.65320   Biso      1.000     C          -0.09951  
         C66       1.0000    0.56890   0.49780   0.56000   Biso      1.000     C          -0.102638           
         C67       1.0000    0.19670   0.50630   0.71330   Biso      1.000     C          -0.099478           
         C68       1.0000    0.13560   0.53810   0.68410   Biso      1.000     C          -0.015371           
         C69       1.0000    0.07930   0.48620   0.60050   Biso      1.000     C          -0.113142           
         C70       1.0000    0.08570   0.41010   0.54550   Biso      1.000     C          -0.125872           
         C71       1.0000    0.14690   0.39520   0.56720   Biso      1.000     C          -0.023051           
         C72       1.0000    0.12790   0.61490   0.74340   Biso      1.000     C          0.630575  
         C73       1.0000    0.57930   0.01380   0.10050   Biso      1.000     C          -0.113142           
         C74       1.0000    0.63560   0.96190   0.18410   Biso      1.000     C          -0.015371           
         C75       1.0000    0.64690   0.89520   0.56720   Biso      1.000     C          -0.023087           
         C76       1.0000    0.19670   0.49370   0.21330   Biso      1.000     C          -0.09947  
         C77       1.0000    0.20180   0.56340   0.15320   Biso      1.000     C          -0.099483           
         C78       1.0000    0.15310   0.67610   0.00270   Biso      1.000     C          0.627299  
         C79       1.0000    0.12790   0.38510   0.24340   Biso      1.000     C          0.630576  
         C80       1.0000    0.56890   0.50220   0.06000   Biso      1.000     C          -0.102642           
         C81       1.0000    0.07780   0.89390   0.69580   Biso      1.000     C          0.606241  
         C82       1.0000    0.46830   0.55170   0.03310   Biso      1.000     C          -0.106584           
         C83       1.0000    0.53760   0.55160   0.09480   Biso      1.000     C          -0.008212           
         C84       1.0000    0.58570   0.08990   0.04550   Biso      1.000     C          -0.125872           
         C85       1.0000    0.62790   0.11490   0.74340   Biso      1.000     C          0.630575  
         C86       1.0000    0.57780   0.60610   0.19580   Biso      1.000     C          0.60624   
         C87       1.0000    0.03760   0.94840   0.59480   Biso      1.000     C          -0.008223           
         C88       1.0000    0.70180   0.93660   0.65320   Biso      1.000     C          -0.099481           
         C89       1.0000    0.96830   0.94830   0.53310   Biso      1.000     C          -0.106574           
         C90       1.0000    0.69670   0.00630   0.71330   Biso      1.000     C          -0.099482           
         C91       1.0000    0.63560   0.03810   0.68410   Biso      1.000     C          -0.015371           
         C92       1.0000    0.06890   0.99780   0.56000   Biso      1.000     C          -0.102638           
         C93       1.0000    0.57930   0.98620   0.60050   Biso      1.000     C          -0.113144           
         C94       1.0000    0.64690   0.10480   0.06720   Biso      1.000     C          -0.023051           
         C95       1.0000    0.58570   0.91010   0.54550   Biso      1.000     C          -0.125858           
         C96       1.0000    0.65310   0.82390   0.50270   Biso      1.000     C          0.627299  
         Ca1       1.0000    0.00000   0.28959   0.25000   Biso      1.000     Ca          1.469377  
         Ca2       1.0000    0.50000   0.78959   0.25000   Biso      1.000     Ca          1.469377  
         Ca3       1.0000    0.00000   0.71041   0.75000   Biso      1.000     Ca          1.469377  
         Ca4       1.0000    0.50000   0.21041   0.75000   Biso      1.000     Ca          1.469377  
         Cd1       1.0000    0.82855   0.79972   0.61743   Biso      1.000     Cd          1.011724  
         Cd2       1.0000    0.67145   0.70028   0.38257   Biso      1.000     Cd          1.011724  
         Cd3       1.0000    0.67145   0.29972   0.88257   Biso      1.000     Cd          1.011724  
         Cd4       1.0000    0.17145   0.79972   0.88257   Biso      1.000     Cd          1.011724  
         Cd5       1.0000    0.32855   0.29972   0.61743   Biso      1.000     Cd          1.011724  
         Cd6       1.0000    0.32855   0.70028   0.11743   Biso      1.000     Cd          1.011724  
         Cd7       1.0000    0.82855   0.20028   0.11743   Biso      1.000     Cd          1.011724  
         Cd8       1.0000    0.17145   0.20028   0.38257   Biso      1.000     Cd          1.011724  
         H1        1.0000    0.96350   0.50200   0.91950   Biso      1.000     H          0.106558  
         H2        1.0000    0.55390   0.41230   0.94660   Biso      1.000     H          0.116541  
         H3        1.0000    0.95140   0.37130   0.00460   Biso      1.000     H          0.132359  
         H4        1.0000    0.38420   0.49530   0.90080   Biso      1.000     H          0.118684  
         H5        1.0000    0.95140   0.62870   0.50460   Biso      1.000     H          0.132357  
         H6        1.0000    0.04860   0.62870   0.99540   Biso      1.000     H          0.132357  
         H7        1.0000    0.23600   0.46880   0.27420   Biso      1.000     H          0.115026  
         H8        1.0000    0.24440   0.58130   0.17350   Biso      1.000     H          0.113056  
         H9        1.0000    0.61580   0.50470   0.09920   Biso      1.000     H          0.118685  
         H10       1.0000    0.44610   0.58770   0.05340   Biso      1.000     H          0.116542  
         H11       1.0000    0.74440   0.91870   0.67350   Biso      1.000     H          0.113056  
         H12       1.0000    0.73600   0.03120   0.77420   Biso      1.000     H          0.115027  
         H13       1.0000    0.94610   0.91230   0.55340   Biso      1.000     H          0.116541  
         H14       1.0000    0.76400   0.53120   0.72580   Biso      1.000     H          0.115027  
         H15       1.0000    0.53650   0.00200   0.58050   Biso      1.000     H          0.106559  
         H16       1.0000    0.54860   0.87130   0.49540   Biso      1.000     H          0.132357  
         H17       1.0000    0.54860   0.12870   0.99540   Biso      1.000     H          0.132359  
         H18       1.0000    0.53650   0.99800   0.08050   Biso      1.000     H          0.106558  
         H19       1.0000    0.73600   0.96880   0.27420   Biso      1.000     H          0.115027  
         H20       1.0000    0.74440   0.08130   0.17350   Biso      1.000     H          0.113058  
         H21       1.0000    0.11580   0.00470   0.09920   Biso      1.000     H          0.118685  
         H22       1.0000    0.94610   0.08770   0.05340   Biso      1.000     H          0.116542  
         H23       1.0000    0.24440   0.41870   0.67350   Biso      1.000     H          0.113058  
         H24       1.0000    0.44610   0.41230   0.55340   Biso      1.000     H          0.116541  
         H25       1.0000    0.23600   0.53120   0.77420   Biso      1.000     H          0.115027  
         H26       1.0000    0.61580   0.49530   0.59920   Biso      1.000     H          0.118684  
         H27       1.0000    0.03650   0.50200   0.58050   Biso      1.000     H          0.106558  
         H28       1.0000    0.04860   0.37130   0.49540   Biso      1.000     H          0.132359  
         H29       1.0000    0.11580   0.99530   0.59920   Biso      1.000     H          0.118684  
         H30       1.0000    0.75560   0.41870   0.82650   Biso      1.000     H          0.113058  
         H31       1.0000    0.03650   0.49800   0.08050   Biso      1.000     H          0.106558  
         H32       1.0000    0.88420   0.00470   0.40080   Biso      1.000     H          0.118685  
         H33       1.0000    0.88420   0.99530   0.90080   Biso      1.000     H          0.118685  
         H34       1.0000    0.96350   0.49800   0.41950   Biso      1.000     H          0.106558  
         H35       1.0000    0.45140   0.12870   0.50460   Biso      1.000     H          0.132359  
         H36       1.0000    0.05390   0.91230   0.94660   Biso      1.000     H          0.116541  
         H37       1.0000    0.45140   0.87130   0.00460   Biso      1.000     H          0.132359  
         H38       1.0000    0.05390   0.08770   0.44660   Biso      1.000     H          0.116542  
         H39       1.0000    0.26400   0.03120   0.72580   Biso      1.000     H          0.115027  
         H40       1.0000    0.46350   0.99800   0.41950   Biso      1.000     H          0.106558  
         H41       1.0000    0.25560   0.91870   0.82650   Biso      1.000     H          0.113058  
         H42       1.0000    0.55390   0.58770   0.44660   Biso      1.000     H          0.116542  
         H43       1.0000    0.46350   0.00200   0.91950   Biso      1.000     H          0.106558  
         H44       1.0000    0.25560   0.08130   0.32650   Biso      1.000     H          0.113058  
         H45       1.0000    0.38420   0.50470   0.40080   Biso      1.000     H          0.118685  
         H46       1.0000    0.26400   0.96880   0.22580   Biso      1.000     H          0.115026  
         H47       1.0000    0.75560   0.58130   0.32650   Biso      1.000     H          0.113056  
         H48       1.0000    0.76400   0.46880   0.22580   Biso      1.000     H          0.115026  
         O1        1.0000    0.60006   0.21370   0.92170   Biso      1.000     O          -0.645138           
         O2        1.0000    0.43020   0.13810   0.79020   Biso      1.000     O          -0.663293           
         O3        1.0000    0.78933   0.70100   0.46920   Biso      1.000     O          -0.556074           
         O4        1.0000    0.35790   0.60370   0.25080   Biso      1.000     O          -0.546772           
         O5        1.0000    0.89994   0.71370   0.57830   Biso      1.000     O          -0.645138           
         O6        1.0000    0.04968   0.14970   0.22680   Biso      1.000     O          -0.628171           
         O7        1.0000    0.14210   0.10370   0.24920   Biso      1.000     O          -0.546772           
         O8        1.0000    0.18056   0.65310   0.82000   Biso      1.000     O          -0.579444           
         O9        1.0000    0.21067   0.29900   0.53080   Biso      1.000     O          -0.556073           
         O10       1.0000    0.10006   0.28630   0.42170   Biso      1.000     O          -0.645138           
         O11       1.0000    0.54968   0.35030   0.72680   Biso      1.000     O          -0.628171           
         O12       1.0000    0.64210   0.39630   0.74920   Biso      1.000     O          -0.546772           
         O13       1.0000    0.56980   0.86190   0.20980   Biso      1.000     O          -0.663293           
         O14       1.0000    0.68056   0.84690   0.32000   Biso      1.000     O          -0.579444           
         O15       1.0000    0.71067   0.20100   0.03080   Biso      1.000     O          -0.556073           
         O16       1.0000    0.06980   0.63810   0.70980   Biso      1.000     O          -0.663293           
         O17       1.0000    0.04968   0.85030   0.72680   Biso      1.000     O          -0.628171           
         O18       1.0000    0.18056   0.34690   0.32000   Biso      1.000     O          -0.579444           
         O19       1.0000    0.06980   0.36190   0.20980   Biso      1.000     O          -0.663293           
         O20       1.0000    0.89994   0.28630   0.07830   Biso      1.000     O          -0.645138           
         O21       1.0000    0.78933   0.29900   0.96920   Biso      1.000     O          -0.556073           
         O22       1.0000    0.39994   0.21370   0.57830   Biso      1.000     O          -0.645138           
         O23       1.0000    0.28933   0.20100   0.46920   Biso      1.000     O          -0.556073           
         O24       1.0000    0.31944   0.84690   0.18000   Biso      1.000     O          -0.579445           
         O25       1.0000    0.43020   0.86190   0.29020   Biso      1.000     O          -0.663293           
         O26       1.0000    0.35790   0.39630   0.75080   Biso      1.000     O          -0.546772           
         O27       1.0000    0.45032   0.35030   0.77320   Biso      1.000     O          -0.628171           
         O28       1.0000    0.81944   0.65310   0.68000   Biso      1.000     O          -0.579444           
         O29       1.0000    0.45032   0.64970   0.27320   Biso      1.000     O          -0.628171           
         O30       1.0000    0.54968   0.64970   0.22680   Biso      1.000     O          -0.628171           
         O31       1.0000    0.64210   0.60370   0.24920   Biso      1.000     O          -0.546772           
         O32       1.0000    0.28933   0.79900   0.96920   Biso      1.000     O          -0.556073           
         O33       1.0000    0.56980   0.13810   0.70980   Biso      1.000     O          -0.663293           
         O34       1.0000    0.68056   0.15310   0.82000   Biso      1.000     O          -0.579444           
         O35       1.0000    0.93020   0.63810   0.79020   Biso      1.000     O          -0.663293           
         O36       1.0000    0.71067   0.79900   0.53080   Biso      1.000     O          -0.556074           
         O37       1.0000    0.60006   0.78630   0.42170   Biso      1.000     O          -0.645138           
         O38       1.0000    0.85790   0.10370   0.25080   Biso      1.000     O          -0.546772           
         O39       1.0000    0.95032   0.14970   0.27320   Biso      1.000     O          -0.628171           
         O40       1.0000    0.31944   0.15310   0.68000   Biso      1.000     O          -0.579444           
         O41       1.0000    0.95032   0.85030   0.77320   Biso      1.000     O          -0.628171           
         O42       1.0000    0.85790   0.89630   0.75080   Biso      1.000     O          -0.546772           
         O43       1.0000    0.93020   0.36190   0.29020   Biso      1.000     O          -0.663293           
         O44       1.0000    0.81944   0.34690   0.18000   Biso      1.000     O          -0.579444           
         O45       1.0000    0.10006   0.71370   0.92170   Biso      1.000     O          -0.645138           
         O46       1.0000    0.21067   0.70100   0.03080   Biso      1.000     O          -0.556074           
         O47       1.0000    0.14210   0.89630   0.74920   Biso      1.000     O          -0.546772           
         O48       1.0000    0.39994   0.78630   0.07830   Biso      1.000     O          -0.645138 