
##########################################################################
#               Crystallographic Information Format file
#               Produced by PyCifRW module
#
#  This is a CIF file.  CIF has been adopted by the International
#  Union of Crystallography as the standard for data archiving and
#  transmission.
#
#  For information on this file format, follow the CIF links at
#  http://www.iucr.org
##########################################################################

data_image0

_cell_length_a                          9.7558
_cell_length_b                          10.5549
_cell_length_c                          16.5111
_cell_angle_alpha                       90
_cell_angle_beta                        112.447
_cell_angle_gamma                       90
_symmetry_space_group_name_H-M          'P 1'
_symmetry_int_tables_number             1
loop_
  _symmetry_equiv_pos_as_xyz
         'x, y, z' 
loop_
  _atom_site_label
  _atom_site_occupancy
  _atom_site_fract_x
  _atom_site_fract_y
  _atom_site_fract_z
  _atom_site_thermal_displace_type
  _atom_site_B_iso_or_equiv
  _atom_site_type_symbol
  _atom_site_charge
         C1        1.0000    0.67860   0.05100   0.97090   Biso      1.000     C          -0.040501999999999996         
         C2        1.0000    0.51770   0.55990   0.02840   Biso      1.000     C          0.513247  
         C3        1.0000    0.92830   0.53270   0.96810   Biso      1.000     C          0.502796  
         C4        1.0000    0.25050   0.15590   0.97420   Biso      1.000     C          -0.011198           
         C5        1.0000    0.32140   0.55100   0.52910   Biso      1.000     C          -0.040497000000000005         
         C6        1.0000    0.35380   0.42480   0.52800   Biso      1.000     C          -0.11606300000000001          
         C7        1.0000    0.35380   0.07520   0.02800   Biso      1.000     C          -0.11605499999999999          
         C8        1.0000    0.25050   0.34410   0.47420   Biso      1.000     C          -0.011193           
         C9        1.0000    0.88740   0.60980   0.57840   Biso      1.000     C          -0.156641           
         C10       1.0000    0.11260   0.39020   0.42160   Biso      1.000     C          -0.156634           
         C11       1.0000    0.07890   0.51650   0.42320   Biso      1.000     C          0.22724699999999998           
         C12       1.0000    0.93300   0.57240   0.37080   Biso      1.000     C          -0.60492  
         C13       1.0000    0.64620   0.57520   0.47200   Biso      1.000     C          -0.11607200000000001          
         C14       1.0000    0.07170   0.46730   0.03190   Biso      1.000     C          0.502796  
         C15       1.0000    0.48230   0.44010   0.97160   Biso      1.000     C          0.513245  
         C16       1.0000    0.74950   0.65590   0.52580   Biso      1.000     C          -0.011186           
         C17       1.0000    0.06700   0.42760   0.62920   Biso      1.000     C          -0.604923           
         C18       1.0000    0.32140   0.94900   0.02910   Biso      1.000     C          -0.040494999999999996         
         C19       1.0000    0.11260   0.10980   0.92160   Biso      1.000     C          -0.156636           
         C20       1.0000    0.92110   0.48350   0.57680   Biso      1.000     C          0.22724699999999998           
         C21       1.0000    0.07890   0.98350   0.92320   Biso      1.000     C          0.22724699999999998           
         C22       1.0000    0.64620   0.92480   0.97200   Biso      1.000     C          -0.11606300000000001          
         C23       1.0000    0.67860   0.44900   0.47090   Biso      1.000     C          -0.040494           
         C24       1.0000    0.74950   0.84410   0.02580   Biso      1.000     C          -0.011178           
         C25       1.0000    0.88740   0.89020   0.07840   Biso      1.000     C          -0.156641           
         C26       1.0000    0.92110   0.01650   0.07680   Biso      1.000     C          0.22724899999999998           
         C27       1.0000    0.48230   0.05990   0.47160   Biso      1.000     C          0.513262  
         C28       1.0000    0.07170   0.03270   0.53190   Biso      1.000     C          0.502787  
         C29       1.0000    0.06700   0.07240   0.12920   Biso      1.000     C          -0.604919           
         C30       1.0000    0.51770   0.94010   0.52840   Biso      1.000     C          0.513261  
         C31       1.0000    0.92830   0.96730   0.46810   Biso      1.000     C          0.502782  
         C32       1.0000    0.93300   0.92760   0.87080   Biso      1.000     C          -0.604919           
         Eu1       1.0000    0.17947   0.61176   0.89335   Biso      1.000     Eu          1.346805  
         Eu2       1.0000    0.17947   0.88824   0.39335   Biso      1.000     Eu          1.346794  
         Eu3       1.0000    0.82053   0.11176   0.60665   Biso      1.000     Eu          1.346795  
         Eu4       1.0000    0.82053   0.38824   0.10665   Biso      1.000     Eu          1.3468040000000001  
         H1        1.0000    0.71380   0.83570   0.68620   Biso      1.000     H          0.42781499999999995           
         H2        1.0000    0.72750   0.74140   0.52710   Biso      1.000     H          0.120959  
         H3        1.0000    0.27250   0.24140   0.97290   Biso      1.000     H          0.120958  
         H4        1.0000    0.44660   0.10560   0.06400   Biso      1.000     H          0.132964  
         H5        1.0000    0.60740   0.39360   0.43460   Biso      1.000     H          0.140431  
         H6        1.0000    0.85790   0.99320   0.85740   Biso      1.000     H          0.183472  
         H7        1.0000    0.04180   0.16480   0.88470   Biso      1.000     H          0.152013  
         H8        1.0000    0.39260   0.89360   0.06540   Biso      1.000     H          0.140429  
         H9        1.0000    0.90960   0.86360   0.90570   Biso      1.000     H          0.177727  
         H10       1.0000    0.55340   0.60560   0.43600   Biso      1.000     H          0.132966  
         H11       1.0000    0.90960   0.63640   0.40570   Biso      1.000     H          0.177728  
         H12       1.0000    0.71380   0.66430   0.18620   Biso      1.000     H          0.42781499999999995           
         H13       1.0000    0.60740   0.10640   0.93460   Biso      1.000     H          0.140429  
         H14       1.0000    0.55340   0.89440   0.93600   Biso      1.000     H          0.132964  
         H15       1.0000    0.72750   0.75860   0.02710   Biso      1.000     H          0.120955  
         H16       1.0000    0.95820   0.83520   0.11530   Biso      1.000     H          0.152013  
         H17       1.0000    0.09040   0.13640   0.09430   Biso      1.000     H          0.177726  
         H18       1.0000    0.14210   0.00680   0.14260   Biso      1.000     H          0.183472  
         H19       1.0000    0.28620   0.33570   0.81380   Biso      1.000     H          0.42781499999999995           
         H20       1.0000    0.95820   0.66480   0.61530   Biso      1.000     H          0.152013  
         H21       1.0000    0.28620   0.16430   0.31380   Biso      1.000     H          0.427816  
         H22       1.0000    0.04180   0.33520   0.38470   Biso      1.000     H          0.152013  
         H23       1.0000    0.09040   0.36360   0.59430   Biso      1.000     H          0.177727  
         H24       1.0000    0.39260   0.60640   0.56540   Biso      1.000     H          0.140433  
         H25       1.0000    0.44660   0.39440   0.56400   Biso      1.000     H          0.132967  
         H26       1.0000    0.85790   0.50680   0.35740   Biso      1.000     H          0.183473  
         H27       1.0000    0.27250   0.25860   0.47290   Biso      1.000     H          0.12096199999999999           
         H28       1.0000    0.14210   0.49320   0.64260   Biso      1.000     H          0.183472  
         N1        1.0000    0.18560   0.59470   0.47730   Biso      1.000     N          0.27707600000000004           
         N2        1.0000    0.18560   0.90530   0.97730   Biso      1.000     N          0.277079  
         N3        1.0000    0.81440   0.40530   0.52270   Biso      1.000     N          0.27707800000000005           
         N4        1.0000    0.81440   0.09470   0.02270   Biso      1.000     N          0.277082  
         O1        1.0000    0.96090   0.25430   0.71039   Biso      1.000     O          -0.783101           
         O2        1.0000    0.23460   0.29570   0.77020   Biso      1.000     O          -0.691566           
         O3        1.0000    0.06020   0.45930   0.78972   Biso      1.000     O          -0.799113           
         O4        1.0000    0.93820   0.59080   0.90540   Biso      1.000     O          -0.405084           
         O5        1.0000    0.36050   0.05920   0.40711   Biso      1.000     O          -0.557758           
         O6        1.0000    0.57350   0.14820   0.49320   Biso      1.000     O          -0.5073949999999999           
         O7        1.0000    0.57350   0.35180   0.99320   Biso      1.000     O          -0.5074   
         O8        1.0000    0.18580   0.01960   0.51530   Biso      1.000     O          -0.48340600000000006          
         O9        1.0000    0.06020   0.04070   0.28972   Biso      1.000     O          -0.7991199999999999           
         O10       1.0000    0.23460   0.20430   0.27020   Biso      1.000     O          -0.691562           
         O11       1.0000    0.96090   0.24570   0.21039   Biso      1.000     O          -0.783109           
         O12       1.0000    0.84400   0.21660   0.01780   Biso      1.000     O          -0.454913           
         O13       1.0000    0.81420   0.98040   0.48470   Biso      1.000     O          -0.48340500000000003          
         O14       1.0000    0.93820   0.90920   0.40540   Biso      1.000     O          -0.40506  
         O15       1.0000    0.42650   0.85180   0.50680   Biso      1.000     O          -0.507397           
         O16       1.0000    0.63950   0.94080   0.59289   Biso      1.000     O          -0.557756           
         O17       1.0000    0.42650   0.64820   0.00680   Biso      1.000     O          -0.5073989999999999           
         O18       1.0000    0.93980   0.54070   0.21028   Biso      1.000     O          -0.799114           
         O19       1.0000    0.06180   0.09080   0.59460   Biso      1.000     O          -0.405061           
         O20       1.0000    0.76540   0.70430   0.22980   Biso      1.000     O          -0.691566           
         O21       1.0000    0.15600   0.71660   0.48220   Biso      1.000     O          -0.454905           
         O22       1.0000    0.18580   0.48040   0.01530   Biso      1.000     O          -0.48340299999999997          
         O23       1.0000    0.06180   0.40920   0.09460   Biso      1.000     O          -0.405086           
         O24       1.0000    0.84400   0.28340   0.51780   Biso      1.000     O          -0.45491400000000004          
         O25       1.0000    0.36050   0.44080   0.90711   Biso      1.000     O          -0.557742           
         O26       1.0000    0.63950   0.55920   0.09289   Biso      1.000     O          -0.557743           
         O27       1.0000    0.93980   0.95930   0.71028   Biso      1.000     O          -0.799121           
         O28       1.0000    0.76540   0.79570   0.72980   Biso      1.000     O          -0.691563           
         O29       1.0000    0.03910   0.75430   0.78961   Biso      1.000     O          -0.7831100000000001           
         O30       1.0000    0.15600   0.78340   0.98220   Biso      1.000     O          -0.45492200000000005          
         O31       1.0000    0.03910   0.74570   0.28961   Biso      1.000     O          -0.783101           
         O32       1.0000    0.81420   0.51960   0.98470   Biso      1.000     O          -0.48340200000000005          
         P1        1.0000    0.92516   0.64356   0.26944   Biso      1.000     P          1.409075  
         P2        1.0000    0.07484   0.14356   0.23056   Biso      1.000     P          1.4090850000000001  
         P3        1.0000    0.92516   0.85644   0.76944   Biso      1.000     P          1.409083  
         P4        1.0000    0.07484   0.35644   0.73056   Biso      1.000     P          1.4090790000000002 