
##########################################################################
#               Crystallographic Information Format file
#               Produced by PyCifRW module
#
#  This is a CIF file.  CIF has been adopted by the International
#  Union of Crystallography as the standard for data archiving and
#  transmission.
#
#  For information on this file format, follow the CIF links at
#  http://www.iucr.org
##########################################################################

data_image0

_cell_length_a                          9.7284
_cell_length_b                          10.4717
_cell_length_c                          16.4594
_cell_angle_alpha                       90
_cell_angle_beta                        112.511
_cell_angle_gamma                       90
_symmetry_space_group_name_H-M          'P 1'
_symmetry_int_tables_number             1
loop_
  _symmetry_equiv_pos_as_xyz
         'x, y, z' 
loop_
  _atom_site_label
  _atom_site_occupancy
  _atom_site_fract_x
  _atom_site_fract_y
  _atom_site_fract_z
  _atom_site_thermal_displace_type
  _atom_site_B_iso_or_equiv
  _atom_site_type_symbol
  _atom_site_charge
         C1        1.0000    0.67840   0.05730   0.96910   Biso      1.000     C          -0.043822           
         C2        1.0000    0.88530   0.60660   0.57700   Biso      1.000     C          -0.156058           
         C3        1.0000    0.32160   0.55730   0.53090   Biso      1.000     C          -0.043822           
         C4        1.0000    0.35660   0.42980   0.53010   Biso      1.000     C          -0.12191700000000001          
         C5        1.0000    0.25360   0.34840   0.47620   Biso      1.000     C          -0.02425  
         C6        1.0000    0.11470   0.39340   0.42300   Biso      1.000     C          -0.156057           
         C7        1.0000    0.07930   0.52060   0.42400   Biso      1.000     C          0.215741  
         C8        1.0000    0.07160   0.46830   0.03270   Biso      1.000     C          0.5158149999999999  
         C9        1.0000    0.48230   0.43870   0.97260   Biso      1.000     C          0.533713  
         C10       1.0000    0.74640   0.65160   0.52380   Biso      1.000     C          -0.024259           
         C11       1.0000    0.64340   0.57020   0.46990   Biso      1.000     C          -0.12190899999999999          
         C12       1.0000    0.67840   0.44270   0.46910   Biso      1.000     C          -0.04382  
         C13       1.0000    0.32160   0.94270   0.03090   Biso      1.000     C          -0.043822           
         C14       1.0000    0.35660   0.07020   0.03010   Biso      1.000     C          -0.12191700000000001          
         C15       1.0000    0.25360   0.15160   0.97620   Biso      1.000     C          -0.02425  
         C16       1.0000    0.11470   0.10660   0.92300   Biso      1.000     C          -0.156057           
         C17       1.0000    0.07930   0.97940   0.92400   Biso      1.000     C          0.215741  
         C18       1.0000    0.93230   0.92440   0.87030   Biso      1.000     C          -0.610715           
         C19       1.0000    0.07160   0.03170   0.53270   Biso      1.000     C          0.515814  
         C20       1.0000    0.48230   0.06130   0.47260   Biso      1.000     C          0.533713  
         C21       1.0000    0.92070   0.47940   0.57600   Biso      1.000     C          0.215741  
         C22       1.0000    0.06770   0.42440   0.62970   Biso      1.000     C          -0.610715           
         C23       1.0000    0.93230   0.57560   0.37030   Biso      1.000     C          -0.610715           
         C24       1.0000    0.06770   0.07560   0.12970   Biso      1.000     C          -0.610715           
         C25       1.0000    0.92840   0.53170   0.96730   Biso      1.000     C          0.515813  
         C26       1.0000    0.64340   0.92980   0.96990   Biso      1.000     C          -0.12191700000000001          
         C27       1.0000    0.92070   0.02060   0.07600   Biso      1.000     C          0.21573699999999998           
         C28       1.0000    0.51770   0.56130   0.02740   Biso      1.000     C          0.533713  
         C29       1.0000    0.92840   0.96830   0.46730   Biso      1.000     C          0.515813  
         C30       1.0000    0.74640   0.84840   0.02380   Biso      1.000     C          -0.02425  
         C31       1.0000    0.51770   0.93870   0.52740   Biso      1.000     C          0.533713  
         C32       1.0000    0.88530   0.89340   0.07700   Biso      1.000     C          -0.156052           
         H1        1.0000    0.14210   0.49130   0.64360   Biso      1.000     H          0.181204  
         H2        1.0000    0.39130   0.88600   0.06770   Biso      1.000     H          0.141817  
         H3        1.0000    0.95560   0.83720   0.11390   Biso      1.000     H          0.149499  
         H4        1.0000    0.45010   0.10010   0.06630   Biso      1.000     H          0.129755  
         H5        1.0000    0.72370   0.76240   0.02500   Biso      1.000     H          0.12268399999999999           
         H6        1.0000    0.09290   0.36030   0.59510   Biso      1.000     H          0.188172  
         H7        1.0000    0.04440   0.16280   0.88610   Biso      1.000     H          0.1495    
         H8        1.0000    0.54990   0.89990   0.93370   Biso      1.000     H          0.129755  
         H9        1.0000    0.90710   0.86030   0.90490   Biso      1.000     H          0.188172  
         H10       1.0000    0.85790   0.99130   0.85640   Biso      1.000     H          0.181204  
         H11       1.0000    0.60870   0.11400   0.93230   Biso      1.000     H          0.141817  
         H12       1.0000    0.27630   0.23760   0.97500   Biso      1.000     H          0.12268399999999999           
         H13       1.0000    0.09290   0.13970   0.09510   Biso      1.000     H          0.188172  
         H14       1.0000    0.60870   0.38600   0.43230   Biso      1.000     H          0.141817  
         H15       1.0000    0.54990   0.60010   0.43370   Biso      1.000     H          0.129754  
         H16       1.0000    0.95560   0.66280   0.61390   Biso      1.000     H          0.1495    
         H17       1.0000    0.28670   0.16910   0.31480   Biso      1.000     H          0.43021899999999996           
         H18       1.0000    0.39130   0.61400   0.56770   Biso      1.000     H          0.141816  
         H19       1.0000    0.45010   0.39990   0.56630   Biso      1.000     H          0.129755  
         H20       1.0000    0.28670   0.33090   0.81480   Biso      1.000     H          0.43021899999999996           
         H21       1.0000    0.27630   0.26240   0.47500   Biso      1.000     H          0.12268399999999999           
         H22       1.0000    0.71330   0.66910   0.18520   Biso      1.000     H          0.43021899999999996           
         H23       1.0000    0.90710   0.63970   0.40490   Biso      1.000     H          0.188172  
         H24       1.0000    0.04440   0.33720   0.38610   Biso      1.000     H          0.1495    
         H25       1.0000    0.72370   0.73760   0.52500   Biso      1.000     H          0.12268499999999999           
         H26       1.0000    0.14210   0.00870   0.14360   Biso      1.000     H          0.181204  
         H27       1.0000    0.85790   0.50870   0.35640   Biso      1.000     H          0.181204  
         H28       1.0000    0.71330   0.83090   0.68520   Biso      1.000     H          0.43021899999999996           
         N1        1.0000    0.81460   0.40060   0.52220   Biso      1.000     N          0.287286  
         N2        1.0000    0.81460   0.09940   0.02220   Biso      1.000     N          0.287286  
         N3        1.0000    0.18540   0.59940   0.47780   Biso      1.000     N          0.287286  
         N4        1.0000    0.18540   0.90060   0.97780   Biso      1.000     N          0.287286  
         O1        1.0000    0.04040   0.74990   0.79007   Biso      1.000     O          -0.889366           
         O2        1.0000    0.06260   0.08770   0.59669   Biso      1.000     O          -0.5657449999999999           
         O3        1.0000    0.57620   0.14870   0.49480   Biso      1.000     O          -0.618183           
         O4        1.0000    0.35930   0.06330   0.40830   Biso      1.000     O          -0.634617           
         O5        1.0000    0.95960   0.24990   0.70993   Biso      1.000     O          -0.889366           
         O6        1.0000    0.18570   0.02020   0.51530   Biso      1.000     O          -0.624375           
         O7        1.0000    0.15420   0.77790   0.98224   Biso      1.000     O          -0.585079           
         O8        1.0000    0.18570   0.47980   0.01530   Biso      1.000     O          -0.624375           
         O9        1.0000    0.94000   0.95480   0.70916   Biso      1.000     O          -0.876863           
         O10       1.0000    0.42380   0.64870   0.00520   Biso      1.000     O          -0.618183           
         O11       1.0000    0.06000   0.04520   0.29084   Biso      1.000     O          -0.876862           
         O12       1.0000    0.23490   0.20920   0.27100   Biso      1.000     O          -0.6887810000000001           
         O13       1.0000    0.95960   0.25010   0.20993   Biso      1.000     O          -0.889367           
         O14       1.0000    0.84580   0.22210   0.01776   Biso      1.000     O          -0.585078           
         O15       1.0000    0.81430   0.97980   0.48470   Biso      1.000     O          -0.624375           
         O16       1.0000    0.93740   0.91230   0.40331   Biso      1.000     O          -0.5657449999999999           
         O17       1.0000    0.42380   0.85130   0.50520   Biso      1.000     O          -0.618183           
         O18       1.0000    0.64070   0.93670   0.59170   Biso      1.000     O          -0.634617           
         O19       1.0000    0.93740   0.58770   0.90331   Biso      1.000     O          -0.5657449999999999           
         O20       1.0000    0.81430   0.52020   0.98470   Biso      1.000     O          -0.624375           
         O21       1.0000    0.94000   0.54520   0.20916   Biso      1.000     O          -0.876863           
         O22       1.0000    0.76510   0.70920   0.22900   Biso      1.000     O          -0.6887810000000001           
         O23       1.0000    0.04040   0.75010   0.29007   Biso      1.000     O          -0.889366           
         O24       1.0000    0.15420   0.72210   0.48224   Biso      1.000     O          -0.585078           
         O25       1.0000    0.06000   0.45480   0.79084   Biso      1.000     O          -0.876863           
         O26       1.0000    0.06260   0.41230   0.09669   Biso      1.000     O          -0.5657449999999999           
         O27       1.0000    0.57620   0.35130   0.99480   Biso      1.000     O          -0.618183           
         O28       1.0000    0.35930   0.43670   0.90830   Biso      1.000     O          -0.634616           
         O29       1.0000    0.64070   0.56330   0.09170   Biso      1.000     O          -0.634617           
         O30       1.0000    0.84580   0.27790   0.51776   Biso      1.000     O          -0.585078           
         O31       1.0000    0.76510   0.79080   0.72900   Biso      1.000     O          -0.6887810000000001           
         O32       1.0000    0.23490   0.29080   0.77100   Biso      1.000     O          -0.6887810000000001           
         P1        1.0000    0.92511   0.64779   0.26894   Biso      1.000     P          1.480694  
         P2        1.0000    0.92511   0.85221   0.76894   Biso      1.000     P          1.480694  
         P3        1.0000    0.07489   0.14779   0.23106   Biso      1.000     P          1.480694  
         P4        1.0000    0.07489   0.35221   0.73106   Biso      1.000     P          1.480694  
         Tb1       1.0000    0.82127   0.10748   0.60686   Biso      1.000     Tb          2.063171  
         Tb2       1.0000    0.82127   0.39252   0.10686   Biso      1.000     Tb          2.0631720000000002  
         Tb3       1.0000    0.17873   0.89252   0.39314   Biso      1.000     Tb          2.06317   
         Tb4       1.0000    0.17873   0.60748   0.89314   Biso      1.000     Tb          2.063171 