
##########################################################################
#               Crystallographic Information Format file
#               Produced by PyCifRW module
#
#  This is a CIF file.  CIF has been adopted by the International
#  Union of Crystallography as the standard for data archiving and
#  transmission.
#
#  For information on this file format, follow the CIF links at
#  http://www.iucr.org
##########################################################################

data_image0

_cell_length_a                          9.7192
_cell_length_b                          10.4517
_cell_length_c                          16.4217
_cell_angle_alpha                       90
_cell_angle_beta                        112.58
_cell_angle_gamma                       90
_symmetry_space_group_name_H-M          'P 1'
_symmetry_int_tables_number             1
loop_
  _symmetry_equiv_pos_as_xyz
         'x, y, z' 
loop_
  _atom_site_label
  _atom_site_occupancy
  _atom_site_fract_x
  _atom_site_fract_y
  _atom_site_fract_z
  _atom_site_thermal_displace_type
  _atom_site_B_iso_or_equiv
  _atom_site_type_symbol
  _atom_site_charge
         C1        1.0000    0.67900   0.05980   0.96850   Biso      1.000     C          -0.041602           
         C2        1.0000    0.51720   0.56180   0.02730   Biso      1.000     C          0.5348109999999999  
         C3        1.0000    0.92780   0.53130   0.96710   Biso      1.000     C          0.516591  
         C4        1.0000    0.25360   0.14980   0.97660   Biso      1.000     C          -0.026215           
         C5        1.0000    0.32100   0.55980   0.53150   Biso      1.000     C          -0.041602           
         C6        1.0000    0.35800   0.43270   0.53150   Biso      1.000     C          -0.121802           
         C7        1.0000    0.35800   0.06730   0.03150   Biso      1.000     C          -0.121797           
         C8        1.0000    0.25360   0.35020   0.47660   Biso      1.000     C          -0.026208999999999996         
         C9        1.0000    0.88320   0.60510   0.57660   Biso      1.000     C          -0.154656           
         C10       1.0000    0.11680   0.39490   0.42340   Biso      1.000     C          -0.154648           
         C11       1.0000    0.07990   0.52240   0.42390   Biso      1.000     C          0.21580700000000003           
         C12       1.0000    0.93220   0.57670   0.37020   Biso      1.000     C          -0.611479           
         C13       1.0000    0.64200   0.56730   0.46850   Biso      1.000     C          -0.121804           
         C14       1.0000    0.07220   0.46870   0.03290   Biso      1.000     C          0.516591  
         C15       1.0000    0.48280   0.43820   0.97270   Biso      1.000     C          0.5348109999999999  
         C16       1.0000    0.74640   0.64980   0.52340   Biso      1.000     C          -0.0262   
         C17       1.0000    0.06780   0.42330   0.62980   Biso      1.000     C          -0.611479           
         C18       1.0000    0.32100   0.94020   0.03150   Biso      1.000     C          -0.041601           
         C19       1.0000    0.11680   0.10510   0.92340   Biso      1.000     C          -0.154647           
         C20       1.0000    0.92010   0.47760   0.57610   Biso      1.000     C          0.215808  
         C21       1.0000    0.07990   0.97760   0.92390   Biso      1.000     C          0.21580700000000003           
         C22       1.0000    0.64200   0.93270   0.96850   Biso      1.000     C          -0.121802           
         C23       1.0000    0.67900   0.44020   0.46850   Biso      1.000     C          -0.0416   
         C24       1.0000    0.74640   0.85020   0.02340   Biso      1.000     C          -0.026208999999999996         
         C25       1.0000    0.88320   0.89490   0.07660   Biso      1.000     C          -0.154647           
         C26       1.0000    0.92010   0.02240   0.07610   Biso      1.000     C          0.21580700000000003           
         C27       1.0000    0.48280   0.06180   0.47270   Biso      1.000     C          0.53481   
         C28       1.0000    0.07220   0.03130   0.53290   Biso      1.000     C          0.516591  
         C29       1.0000    0.06780   0.07670   0.12980   Biso      1.000     C          -0.611479           
         C30       1.0000    0.51720   0.93820   0.52730   Biso      1.000     C          0.5348109999999999  
         C31       1.0000    0.92780   0.96870   0.46710   Biso      1.000     C          0.516591  
         C32       1.0000    0.93220   0.92330   0.87020   Biso      1.000     C          -0.611479           
         Dy1       1.0000    0.17842   0.60572   0.89302   Biso      1.000     Dy          2.064348  
         Dy2       1.0000    0.17842   0.89428   0.39302   Biso      1.000     Dy          2.064348  
         Dy3       1.0000    0.82158   0.10572   0.60698   Biso      1.000     Dy          2.064347  
         Dy4       1.0000    0.82158   0.39428   0.10698   Biso      1.000     Dy          2.064348  
         H1        1.0000    0.71280   0.82930   0.68530   Biso      1.000     H          0.433116  
         H2        1.0000    0.72380   0.73610   0.52430   Biso      1.000     H          0.12391700000000001           
         H3        1.0000    0.27620   0.23610   0.97570   Biso      1.000     H          0.123918  
         H4        1.0000    0.45170   0.09670   0.06810   Biso      1.000     H          0.130402  
         H5        1.0000    0.60960   0.38310   0.43160   Biso      1.000     H          0.139243  
         H6        1.0000    0.85820   0.99090   0.85610   Biso      1.000     H          0.181575  
         H7        1.0000    0.04690   0.16160   0.88610   Biso      1.000     H          0.14793599999999998           
         H8        1.0000    0.39040   0.88310   0.06840   Biso      1.000     H          0.139243  
         H9        1.0000    0.90640   0.85960   0.90490   Biso      1.000     H          0.18903499999999998           
         H10       1.0000    0.54830   0.59670   0.43190   Biso      1.000     H          0.130403  
         H11       1.0000    0.90640   0.64040   0.40490   Biso      1.000     H          0.18903399999999998           
         H12       1.0000    0.71280   0.67070   0.18530   Biso      1.000     H          0.433116  
         H13       1.0000    0.60960   0.11690   0.93160   Biso      1.000     H          0.139243  
         H14       1.0000    0.54830   0.90330   0.93190   Biso      1.000     H          0.130403  
         H15       1.0000    0.72380   0.76390   0.02430   Biso      1.000     H          0.123918  
         H16       1.0000    0.95310   0.83840   0.11390   Biso      1.000     H          0.14793599999999998           
         H17       1.0000    0.09360   0.14040   0.09510   Biso      1.000     H          0.18903499999999998           
         H18       1.0000    0.14180   0.00910   0.14390   Biso      1.000     H          0.181575  
         H19       1.0000    0.28720   0.32930   0.81470   Biso      1.000     H          0.433116  
         H20       1.0000    0.95310   0.66160   0.61390   Biso      1.000     H          0.14793699999999999           
         H21       1.0000    0.28720   0.17070   0.31470   Biso      1.000     H          0.433116  
         H22       1.0000    0.04690   0.33840   0.38610   Biso      1.000     H          0.14793599999999998           
         H23       1.0000    0.09360   0.35960   0.59510   Biso      1.000     H          0.18903399999999998           
         H24       1.0000    0.39040   0.61690   0.56840   Biso      1.000     H          0.139243  
         H25       1.0000    0.45170   0.40330   0.56810   Biso      1.000     H          0.130403  
         H26       1.0000    0.85820   0.50910   0.35610   Biso      1.000     H          0.181574  
         H27       1.0000    0.27620   0.26390   0.47570   Biso      1.000     H          0.123918  
         H28       1.0000    0.14180   0.49090   0.64390   Biso      1.000     H          0.181575  
         N1        1.0000    0.18570   0.60200   0.47860   Biso      1.000     N          0.287429  
         N2        1.0000    0.18570   0.89800   0.97860   Biso      1.000     N          0.287429  
         N3        1.0000    0.81430   0.39800   0.52140   Biso      1.000     N          0.287429  
         N4        1.0000    0.81430   0.10200   0.02140   Biso      1.000     N          0.287429  
         O1        1.0000    0.95950   0.24810   0.71000   Biso      1.000     O          -0.889497           
         O2        1.0000    0.23500   0.28890   0.77090   Biso      1.000     O          -0.6914060000000001           
         O3        1.0000    0.06030   0.45240   0.79190   Biso      1.000     O          -0.8785780000000001           
         O4        1.0000    0.93670   0.58640   0.90240   Biso      1.000     O          -0.5676859999999999           
         O5        1.0000    0.35890   0.06480   0.40890   Biso      1.000     O          -0.635826           
         O6        1.0000    0.57740   0.14880   0.49560   Biso      1.000     O          -0.619013           
         O7        1.0000    0.57740   0.35120   0.99560   Biso      1.000     O          -0.619013           
         O8        1.0000    0.18600   0.02060   0.51530   Biso      1.000     O          -0.623549           
         O9        1.0000    0.06030   0.04760   0.29190   Biso      1.000     O          -0.8785780000000001           
         O10       1.0000    0.23500   0.21110   0.27090   Biso      1.000     O          -0.6914060000000001           
         O11       1.0000    0.95950   0.25190   0.21000   Biso      1.000     O          -0.889497           
         O12       1.0000    0.84640   0.22490   0.01770   Biso      1.000     O          -0.585533           
         O13       1.0000    0.81400   0.97940   0.48470   Biso      1.000     O          -0.623549           
         O14       1.0000    0.93670   0.91360   0.40240   Biso      1.000     O          -0.5676859999999999           
         O15       1.0000    0.42260   0.85120   0.50440   Biso      1.000     O          -0.619013           
         O16       1.0000    0.64110   0.93520   0.59110   Biso      1.000     O          -0.635826           
         O17       1.0000    0.42260   0.64880   0.00440   Biso      1.000     O          -0.619013           
         O18       1.0000    0.93970   0.54760   0.20810   Biso      1.000     O          -0.8785780000000001           
         O19       1.0000    0.06330   0.08640   0.59760   Biso      1.000     O          -0.5676859999999999           
         O20       1.0000    0.76500   0.71110   0.22910   Biso      1.000     O          -0.6914060000000001           
         O21       1.0000    0.15360   0.72490   0.48230   Biso      1.000     O          -0.585533           
         O22       1.0000    0.18600   0.47940   0.01530   Biso      1.000     O          -0.623549           
         O23       1.0000    0.06330   0.41360   0.09760   Biso      1.000     O          -0.5676859999999999           
         O24       1.0000    0.84640   0.27510   0.51770   Biso      1.000     O          -0.585533           
         O25       1.0000    0.35890   0.43520   0.90890   Biso      1.000     O          -0.635826           
         O26       1.0000    0.64110   0.56480   0.09110   Biso      1.000     O          -0.635826           
         O27       1.0000    0.93970   0.95240   0.70810   Biso      1.000     O          -0.8785780000000001           
         O28       1.0000    0.76500   0.78890   0.72910   Biso      1.000     O          -0.6914060000000001           
         O29       1.0000    0.04050   0.74810   0.79000   Biso      1.000     O          -0.889497           
         O30       1.0000    0.15360   0.77510   0.98230   Biso      1.000     O          -0.585533           
         O31       1.0000    0.04050   0.75190   0.29000   Biso      1.000     O          -0.889497           
         O32       1.0000    0.81400   0.52060   0.98470   Biso      1.000     O          -0.623549           
         P1        1.0000    0.92520   0.64983   0.26869   Biso      1.000     P          1.482616  
         P2        1.0000    0.07480   0.14983   0.23131   Biso      1.000     P          1.482616  
         P3        1.0000    0.92520   0.85017   0.76869   Biso      1.000     P          1.482616  
         P4        1.0000    0.07480   0.35017   0.73131   Biso      1.000     P          1.482616 