
##########################################################################
#               Crystallographic Information Format file
#               Produced by PyCifRW module
#
#  This is a CIF file.  CIF has been adopted by the International
#  Union of Crystallography as the standard for data archiving and
#  transmission.
#
#  For information on this file format, follow the CIF links at
#  http://www.iucr.org
##########################################################################

data_image0

_cell_length_a                          6.9224
_cell_length_b                          18.809
_cell_length_c                          9.6849
_cell_angle_alpha                       90
_cell_angle_beta                        90
_cell_angle_gamma                       90
_symmetry_space_group_name_H-M          'P 1'
_symmetry_int_tables_number             1
loop_
  _symmetry_equiv_pos_as_xyz
         'x, y, z' 
loop_
  _atom_site_label
  _atom_site_occupancy
  _atom_site_fract_x
  _atom_site_fract_y
  _atom_site_fract_z
  _atom_site_thermal_displace_type
  _atom_site_B_iso_or_equiv
  _atom_site_type_symbol
  _atom_site_charge
         Ba1       1.0000    0.75000   0.75000   0.49331   Biso      1.000     Ba          1.5964770000000001  
         Ba2       1.0000    0.25000   0.25000   0.00669   Biso      1.000     Ba          1.5964770000000001  
         Ba3       1.0000    0.25000   0.25000   0.50669   Biso      1.000     Ba          1.5964770000000001  
         Ba4       1.0000    0.75000   0.75000   0.99331   Biso      1.000     Ba          1.5964770000000001  
         C1        1.0000    0.93230   0.93440   0.82160   Biso      1.000     C          -0.548415           
         C2        1.0000    0.87200   0.88250   0.70950   Biso      1.000     C          0.72721   
         C3        1.0000    0.11650   0.51350   0.69160   Biso      1.000     C          0.710769  
         C4        1.0000    0.06770   0.43440   0.67840   Biso      1.000     C          -0.548415           
         C5        1.0000    0.12800   0.38250   0.79050   Biso      1.000     C          0.72721   
         C6        1.0000    0.38350   0.98650   0.69160   Biso      1.000     C          0.710769  
         C7        1.0000    0.43230   0.06560   0.67840   Biso      1.000     C          -0.548415           
         C8        1.0000    0.37200   0.11750   0.79050   Biso      1.000     C          0.72721   
         C9        1.0000    0.38350   0.51350   0.19160   Biso      1.000     C          0.710769  
         C10       1.0000    0.37200   0.38250   0.29050   Biso      1.000     C          0.7272109999999999  
         C11       1.0000    0.88350   0.01350   0.80840   Biso      1.000     C          0.710769  
         C12       1.0000    0.06770   0.06560   0.17840   Biso      1.000     C          -0.548415           
         C13       1.0000    0.12800   0.11750   0.29050   Biso      1.000     C          0.72721   
         C14       1.0000    0.88350   0.48650   0.30840   Biso      1.000     C          0.710769  
         C15       1.0000    0.93230   0.56560   0.32160   Biso      1.000     C          -0.548415           
         C16       1.0000    0.87200   0.61750   0.20950   Biso      1.000     C          0.72721   
         C17       1.0000    0.61650   0.01350   0.30840   Biso      1.000     C          0.710769  
         C18       1.0000    0.56770   0.93440   0.32160   Biso      1.000     C          -0.548415           
         C19       1.0000    0.62800   0.88250   0.20950   Biso      1.000     C          0.72721   
         C20       1.0000    0.43230   0.43440   0.17840   Biso      1.000     C          -0.548415           
         C21       1.0000    0.62800   0.61750   0.70950   Biso      1.000     C          0.7272109999999999  
         C22       1.0000    0.11650   0.98650   0.19160   Biso      1.000     C          0.710769  
         C23       1.0000    0.61650   0.48650   0.80840   Biso      1.000     C          0.710769  
         C24       1.0000    0.56770   0.56560   0.82160   Biso      1.000     C          -0.548415           
         Cd1       1.0000    0.00000   0.50000   0.00000   Biso      1.000     Cd          1.105839  
         Cd2       1.0000    0.50000   0.00000   0.00000   Biso      1.000     Cd          1.105839  
         Cd3       1.0000    0.50000   0.50000   0.50000   Biso      1.000     Cd          1.105839  
         Cd4       1.0000    0.00000   0.00000   0.50000   Biso      1.000     Cd          1.105839  
         H1        1.0000    0.92860   0.06930   0.16860   Biso      1.000     H          0.190272  
         H2        1.0000    0.62370   0.91780   0.40760   Biso      1.000     H          0.14986   
         H3        1.0000    0.12370   0.08220   0.09240   Biso      1.000     H          0.14986   
         H4        1.0000    0.87630   0.58220   0.40760   Biso      1.000     H          0.14986   
         H5        1.0000    0.07140   0.56930   0.33140   Biso      1.000     H          0.190272  
         H6        1.0000    0.42860   0.56930   0.83140   Biso      1.000     H          0.190272  
         H7        1.0000    0.62370   0.58220   0.90760   Biso      1.000     H          0.14986   
         H8        1.0000    0.07140   0.93070   0.83140   Biso      1.000     H          0.190272  
         H9        1.0000    0.42860   0.93070   0.33140   Biso      1.000     H          0.190272  
         H10       1.0000    0.92860   0.43070   0.66860   Biso      1.000     H          0.190272  
         H11       1.0000    0.12370   0.41780   0.59240   Biso      1.000     H          0.14986   
         H12       1.0000    0.57140   0.06930   0.66860   Biso      1.000     H          0.190272  
         H13       1.0000    0.37630   0.08220   0.59240   Biso      1.000     H          0.14986   
         H14       1.0000    0.57140   0.43070   0.16860   Biso      1.000     H          0.190272  
         H15       1.0000    0.87630   0.91780   0.90760   Biso      1.000     H          0.14986   
         H16       1.0000    0.37630   0.41780   0.09240   Biso      1.000     H          0.14986   
         O1        1.0000    0.56060   0.04750   0.20610   Biso      1.000     O          -0.607911           
         O2        1.0000    0.43940   0.54750   0.29390   Biso      1.000     O          -0.607911           
         O3        1.0000    0.36570   0.40140   0.41620   Biso      1.000     O          -0.62875  
         O4        1.0000    0.34100   0.31960   0.25300   Biso      1.000     O          -0.728657           
         O5        1.0000    0.20600   0.95810   0.09390   Biso      1.000     O          -0.615538           
         O6        1.0000    0.06060   0.95250   0.29390   Biso      1.000     O          -0.607911           
         O7        1.0000    0.13430   0.09860   0.41620   Biso      1.000     O          -0.62875  
         O8        1.0000    0.93940   0.45250   0.20610   Biso      1.000     O          -0.607911           
         O9        1.0000    0.79400   0.45810   0.40610   Biso      1.000     O          -0.615537           
         O10       1.0000    0.86570   0.59860   0.08380   Biso      1.000     O          -0.62875  
         O11       1.0000    0.84100   0.68040   0.24700   Biso      1.000     O          -0.728657           
         O12       1.0000    0.70600   0.04190   0.40610   Biso      1.000     O          -0.615537           
         O13       1.0000    0.29400   0.54190   0.09390   Biso      1.000     O          -0.615538           
         O14       1.0000    0.15900   0.18040   0.25300   Biso      1.000     O          -0.728657           
         O15       1.0000    0.34100   0.18040   0.75300   Biso      1.000     O          -0.728657           
         O16       1.0000    0.79400   0.04190   0.90610   Biso      1.000     O          -0.615538           
         O17       1.0000    0.43940   0.95250   0.79390   Biso      1.000     O          -0.607911           
         O18       1.0000    0.29400   0.95810   0.59390   Biso      1.000     O          -0.615538           
         O19       1.0000    0.15900   0.31960   0.75300   Biso      1.000     O          -0.728657           
         O20       1.0000    0.13430   0.40140   0.91620   Biso      1.000     O          -0.62875  
         O21       1.0000    0.06060   0.54750   0.79390   Biso      1.000     O          -0.607911           
         O22       1.0000    0.20600   0.54190   0.59390   Biso      1.000     O          -0.615538           
         O23       1.0000    0.84100   0.81960   0.74700   Biso      1.000     O          -0.728657           
         O24       1.0000    0.86570   0.90140   0.58380   Biso      1.000     O          -0.62875  
         O25       1.0000    0.93940   0.04750   0.70610   Biso      1.000     O          -0.607911           
         O26       1.0000    0.65900   0.68040   0.74700   Biso      1.000     O          -0.728657           
         O27       1.0000    0.63430   0.59860   0.58380   Biso      1.000     O          -0.62875  
         O28       1.0000    0.56060   0.45250   0.70610   Biso      1.000     O          -0.607911           
         O29       1.0000    0.70600   0.45810   0.90610   Biso      1.000     O          -0.615538           
         O30       1.0000    0.63430   0.90140   0.08380   Biso      1.000     O          -0.62875  
         O31       1.0000    0.36570   0.09860   0.91620   Biso      1.000     O          -0.62875  
         O32       1.0000    0.65900   0.81960   0.24700   Biso      1.000     O          -0.728657 