
##########################################################################
#               Crystallographic Information Format file
#               Produced by PyCifRW module
#
#  This is a CIF file.  CIF has been adopted by the International
#  Union of Crystallography as the standard for data archiving and
#  transmission.
#
#  For information on this file format, follow the CIF links at
#  http://www.iucr.org
##########################################################################

data_image0

_cell_length_a                          10.925
_cell_length_b                          10.925
_cell_length_c                          20.461
_cell_angle_alpha                       90
_cell_angle_beta                        90
_cell_angle_gamma                       90
_symmetry_space_group_name_H-M          'P 1'
_symmetry_int_tables_number             1
loop_
  _symmetry_equiv_pos_as_xyz
         'x, y, z' 
loop_
  _atom_site_label
  _atom_site_occupancy
  _atom_site_fract_x
  _atom_site_fract_y
  _atom_site_fract_z
  _atom_site_thermal_displace_type
  _atom_site_B_iso_or_equiv
  _atom_site_type_symbol
  _atom_site_charge
         C1        1.0000    0.49970   0.93400   0.96304   Biso      1.000     C          0.213144  
         C2        1.0000    0.43400   0.00030   0.53696   Biso      1.000     C          0.213145  
         C3        1.0000    0.15470   0.15470   0.27180   Biso      1.000     C          0.927995  
         C4        1.0000    0.65470   0.65470   0.77180   Biso      1.000     C          0.927995  
         C5        1.0000    0.15470   0.84530   0.72820   Biso      1.000     C          0.927995  
         C6        1.0000    0.65470   0.34530   0.22820   Biso      1.000     C          0.927995  
         C7        1.0000    0.84530   0.15470   0.72820   Biso      1.000     C          0.927994  
         C8        1.0000    0.34530   0.65470   0.22820   Biso      1.000     C          0.927996  
         C9        1.0000    0.99970   0.43400   0.46304   Biso      1.000     C          0.213144  
         C10       1.0000    0.34530   0.34530   0.77180   Biso      1.000     C          0.927995  
         C11       1.0000    0.99970   0.56600   0.53696   Biso      1.000     C          0.213144  
         C12       1.0000    0.49970   0.06600   0.03696   Biso      1.000     C          0.213143  
         C13       1.0000    0.00030   0.43400   0.53696   Biso      1.000     C          0.213142  
         C14       1.0000    0.00030   0.56600   0.46304   Biso      1.000     C          0.213142  
         C15       1.0000    0.50030   0.93400   0.03696   Biso      1.000     C          0.213142  
         C16       1.0000    0.56600   0.00030   0.46304   Biso      1.000     C          0.213145  
         C17       1.0000    0.35330   0.64670   0.41290   Biso      1.000     C          0.508879  
         C18       1.0000    0.93400   0.49970   0.96304   Biso      1.000     C          0.213145  
         C19       1.0000    0.06600   0.50030   0.96304   Biso      1.000     C          0.213145  
         C20       1.0000    0.50030   0.06600   0.96304   Biso      1.000     C          0.213143  
         C21       1.0000    0.84530   0.84530   0.27180   Biso      1.000     C          0.927996  
         C22       1.0000    0.43400   0.99970   0.46304   Biso      1.000     C          0.213142  
         C23       1.0000    0.06600   0.49970   0.03696   Biso      1.000     C          0.213143  
         C24       1.0000    0.14670   0.85330   0.91290   Biso      1.000     C          0.508876  
         C25       1.0000    0.56600   0.99970   0.53696   Biso      1.000     C          0.213142  
         C26       1.0000    0.35330   0.35330   0.58710   Biso      1.000     C          0.508881  
         C27       1.0000    0.64670   0.35330   0.41290   Biso      1.000     C          0.50888   
         C28       1.0000    0.85330   0.85330   0.08710   Biso      1.000     C          0.508882  
         C29       1.0000    0.14670   0.14670   0.08710   Biso      1.000     C          0.508881  
         C30       1.0000    0.64670   0.64670   0.58710   Biso      1.000     C          0.508883  
         C31       1.0000    0.93400   0.50030   0.03696   Biso      1.000     C          0.213142  
         C32       1.0000    0.85330   0.14670   0.91290   Biso      1.000     C          0.508876  
         Gd1       1.0000    0.58861   0.84643   0.18504   Biso      1.000     Gd          2.058935  
         Gd2       1.0000    0.84643   0.41139   0.81496   Biso      1.000     Gd          2.058933  
         Gd3       1.0000    0.65357   0.91139   0.68504   Biso      1.000     Gd          2.058928  
         Gd4       1.0000    0.08861   0.34643   0.68504   Biso      1.000     Gd          2.058929  
         Gd5       1.0000    0.34643   0.91139   0.31496   Biso      1.000     Gd          2.058929  
         Gd6       1.0000    0.41139   0.15357   0.18504   Biso      1.000     Gd          2.058928  
         Gd7       1.0000    0.65357   0.08861   0.31496   Biso      1.000     Gd          2.058925  
         Gd8       1.0000    0.08861   0.65357   0.31496   Biso      1.000     Gd          2.058929  
         Gd9       1.0000    0.91139   0.65357   0.68504   Biso      1.000     Gd          2.058933  
         Gd10      1.0000    0.15357   0.41139   0.18504   Biso      1.000     Gd          2.058928  
         Gd11      1.0000    0.50000   0.50000   0.15522   Biso      1.000     Gd          1.985515  
         Gd12      1.0000    0.34643   0.08861   0.68504   Biso      1.000     Gd          2.058928  
         Gd13      1.0000    0.41139   0.84643   0.81496   Biso      1.000     Gd          2.058935  
         Gd14      1.0000    0.15357   0.58861   0.81496   Biso      1.000     Gd          2.058938  
         Gd15      1.0000    0.84643   0.58861   0.18504   Biso      1.000     Gd          2.058938  
         Gd16      1.0000    0.91139   0.34643   0.31496   Biso      1.000     Gd          2.058926  
         Gd17      1.0000    0.50000   0.50000   0.84478   Biso      1.000     Gd          1.985517  
         Gd18      1.0000    0.58861   0.15357   0.81496   Biso      1.000     Gd          2.058936  
         Gd19      1.0000    0.00000   0.00000   0.65522   Biso      1.000     Gd          1.985458  
         Gd20      1.0000    0.00000   0.00000   0.34478   Biso      1.000     Gd          1.985449  
         H1        1.0000    0.88890   0.88890   0.05040   Biso      1.000     H          0.055635  
         H2        1.0000    0.38890   0.38890   0.55040   Biso      1.000     H          0.055641  
         H3        1.0000    0.11110   0.88890   0.94960   Biso      1.000     H          0.055637  
         H4        1.0000    0.61110   0.38890   0.44960   Biso      1.000     H          0.055638  
         H5        1.0000    0.61110   0.61110   0.55040   Biso      1.000     H          0.055642  
         H6        1.0000    0.88890   0.11110   0.94960   Biso      1.000     H          0.055638  
         H7        1.0000    0.11110   0.11110   0.05040   Biso      1.000     H          0.055636  
         H8        1.0000    0.38890   0.61110   0.44960   Biso      1.000     H          0.055639  
         O1        1.0000    0.39120   0.94390   0.19986   Biso      1.000     O          -0.873565           
         O2        1.0000    0.18030   0.95970   0.71780   Biso      1.000     O          -0.777911           
         O3        1.0000    0.34550   0.34550   0.13500   Biso      1.000     O          -1.053425           
         O4        1.0000    0.39120   0.05610   0.80014   Biso      1.000     O          -0.873559           
         O5        1.0000    0.77460   0.77460   0.23960   Biso      1.000     O          -0.705954           
         O6        1.0000    0.35410   0.00200   0.57759   Biso      1.000     O          -0.392055           
         O7        1.0000    0.27460   0.27460   0.73960   Biso      1.000     O          -0.705947           
         O8        1.0000    0.24700   0.90040   0.88540   Biso      1.000     O          -0.591476           
         O9        1.0000    0.40040   0.25300   0.61460   Biso      1.000     O          -0.591478           
         O10       1.0000    0.22540   0.22540   0.23960   Biso      1.000     O          -0.705953           
         O11       1.0000    0.72540   0.72540   0.73960   Biso      1.000     O          -0.705948           
         O12       1.0000    0.44390   0.89120   0.69986   Biso      1.000     O          -0.873563           
         O13       1.0000    0.22540   0.77460   0.76040   Biso      1.000     O          -0.705958           
         O14       1.0000    0.49800   0.85410   0.92241   Biso      1.000     O          -0.392065           
         O15       1.0000    0.72540   0.27460   0.26040   Biso      1.000     O          -0.705953           
         O16       1.0000    0.74700   0.40040   0.38540   Biso      1.000     O          -0.591475           
         O17       1.0000    0.77460   0.22540   0.76040   Biso      1.000     O          -0.705957           
         O18       1.0000    0.54030   0.68030   0.78220   Biso      1.000     O          -0.777915           
         O19       1.0000    0.04030   0.18030   0.28220   Biso      1.000     O          -0.777912           
         O20       1.0000    0.84550   0.84550   0.63500   Biso      1.000     O          -1.053438           
         O21       1.0000    0.89120   0.55610   0.30014   Biso      1.000     O          -0.873563           
         O22       1.0000    0.15450   0.84550   0.36500   Biso      1.000     O          -1.053419           
         O23       1.0000    0.09960   0.24700   0.11460   Biso      1.000     O          -0.591478           
         O24       1.0000    0.31970   0.54030   0.21780   Biso      1.000     O          -0.777915           
         O25       1.0000    0.65450   0.34550   0.86500   Biso      1.000     O          -1.053427           
         O26       1.0000    0.10880   0.44390   0.30014   Biso      1.000     O          -0.873563           
         O27       1.0000    0.14590   0.49800   0.07759   Biso      1.000     O          -0.392054           
         O28       1.0000    0.84550   0.15450   0.36500   Biso      1.000     O          -1.053411           
         O29       1.0000    0.85410   0.50200   0.07759   Biso      1.000     O          -0.392053           
         O30       1.0000    0.59960   0.74700   0.61460   Biso      1.000     O          -0.591478           
         O31       1.0000    0.34550   0.65450   0.86500   Biso      1.000     O          -1.053431           
         O32       1.0000    0.60880   0.94390   0.80014   Biso      1.000     O          -0.873559           
         O33       1.0000    0.64590   0.99800   0.57759   Biso      1.000     O          -0.392055           
         O34       1.0000    0.15450   0.15450   0.63500   Biso      1.000     O          -1.053434           
         O35       1.0000    0.90040   0.75300   0.11460   Biso      1.000     O          -0.59148  
         O36       1.0000    0.68030   0.45970   0.21780   Biso      1.000     O          -0.777919           
         O37       1.0000    0.65450   0.65450   0.13500   Biso      1.000     O          -1.053456           
         O38       1.0000    0.81970   0.04030   0.71780   Biso      1.000     O          -0.777912           
         O39       1.0000    0.27460   0.72540   0.26040   Biso      1.000     O          -0.705954           
         O40       1.0000    0.94390   0.39120   0.19986   Biso      1.000     O          -0.873563           
         O41       1.0000    0.99800   0.35410   0.42241   Biso      1.000     O          -0.392053           
         O42       1.0000    0.50200   0.85410   0.07759   Biso      1.000     O          -0.392056           
         O43       1.0000    0.55610   0.89120   0.30014   Biso      1.000     O          -0.873563           
         O44       1.0000    0.45970   0.68030   0.21780   Biso      1.000     O          -0.777918           
         O45       1.0000    0.75300   0.90040   0.11460   Biso      1.000     O          -0.591479           
         O46       1.0000    0.68030   0.54030   0.78220   Biso      1.000     O          -0.777915           
         O47       1.0000    0.89120   0.44390   0.69986   Biso      1.000     O          -0.873561           
         O48       1.0000    0.64590   0.00200   0.42241   Biso      1.000     O          -0.392053           
         O49       1.0000    0.90040   0.24700   0.88540   Biso      1.000     O          -0.591477           
         O50       1.0000    0.85410   0.49800   0.92241   Biso      1.000     O          -0.392063           
         O51       1.0000    0.59960   0.25300   0.38540   Biso      1.000     O          -0.591475           
         O52       1.0000    0.40040   0.74700   0.38540   Biso      1.000     O          -0.591476           
         O53       1.0000    0.18030   0.04030   0.28220   Biso      1.000     O          -0.777915           
         O54       1.0000    0.14590   0.50200   0.92241   Biso      1.000     O          -0.392064           
         O55       1.0000    0.10880   0.55610   0.69986   Biso      1.000     O          -0.873561           
         O56       1.0000    0.31970   0.45970   0.78220   Biso      1.000     O          -0.777916           
         O57       1.0000    0.09960   0.75300   0.88540   Biso      1.000     O          -0.591477           
         O58       1.0000    0.81970   0.95970   0.28220   Biso      1.000     O          -0.777912           
         O59       1.0000    0.00200   0.64590   0.42241   Biso      1.000     O          -0.392054           
         O60       1.0000    0.25300   0.40040   0.61460   Biso      1.000     O          -0.591478           
         O61       1.0000    0.95970   0.18030   0.71780   Biso      1.000     O          -0.777911           
         O62       1.0000    0.75300   0.09960   0.88540   Biso      1.000     O          -0.591476           
         O63       1.0000    0.45970   0.31970   0.78220   Biso      1.000     O          -0.777915           
         O64       1.0000    0.55610   0.10880   0.69986   Biso      1.000     O          -0.873563           
         O65       1.0000    0.99800   0.64590   0.57759   Biso      1.000     O          -0.392056           
         O66       1.0000    0.94390   0.60880   0.80014   Biso      1.000     O          -0.87356  
         O67       1.0000    0.04030   0.81970   0.71780   Biso      1.000     O          -0.777912           
         O68       1.0000    0.74700   0.59960   0.61460   Biso      1.000     O          -0.591479           
         O69       1.0000    0.50200   0.14590   0.92241   Biso      1.000     O          -0.392066           
         O70       1.0000    0.25300   0.59960   0.38540   Biso      1.000     O          -0.591476           
         O71       1.0000    0.49800   0.14590   0.07759   Biso      1.000     O          -0.392057           
         O72       1.0000    0.44390   0.10880   0.30014   Biso      1.000     O          -0.873563           
         O73       1.0000    0.54030   0.31970   0.21780   Biso      1.000     O          -0.777915           
         O74       1.0000    0.24700   0.09960   0.11460   Biso      1.000     O          -0.591477           
         O75       1.0000    0.95970   0.81970   0.28220   Biso      1.000     O          -0.777915           
         O76       1.0000    0.05610   0.60880   0.19986   Biso      1.000     O          -0.873565           
         O77       1.0000    0.00200   0.35410   0.57759   Biso      1.000     O          -0.392055           
         O78       1.0000    0.05610   0.39120   0.80014   Biso      1.000     O          -0.87356  
         O79       1.0000    0.35410   0.99800   0.42241   Biso      1.000     O          -0.392054           
         O80       1.0000    0.60880   0.05610   0.19986   Biso      1.000     O          -0.873563 