
##########################################################################
#               Crystallographic Information Format file
#               Produced by PyCifRW module
#
#  This is a CIF file.  CIF has been adopted by the International
#  Union of Crystallography as the standard for data archiving and
#  transmission.
#
#  For information on this file format, follow the CIF links at
#  http://www.iucr.org
##########################################################################

data_image0

_cell_length_a                          9.4921
_cell_length_b                          9.5394
_cell_length_c                          11.0134
_cell_angle_alpha                       90
_cell_angle_beta                        90
_cell_angle_gamma                       90
_symmetry_space_group_name_H-M          'P 1'
_symmetry_int_tables_number             1
loop_
  _symmetry_equiv_pos_as_xyz
         'x, y, z' 
loop_
  _atom_site_label
  _atom_site_occupancy
  _atom_site_fract_x
  _atom_site_fract_y
  _atom_site_fract_z
  _atom_site_thermal_displace_type
  _atom_site_B_iso_or_equiv
  _atom_site_type_symbol
  _atom_site_charge
         C1        1.0000    0.28270   0.83530   0.23720   Biso      1.000     C          0.209889  
         C2        1.0000    0.21730   0.16470   0.73720   Biso      1.000     C          0.209882  
         C3        1.0000    0.19600   0.22580   0.86440   Biso      1.000     C          0.173538  
         C4        1.0000    0.03830   0.24030   0.89720   Biso      1.000     C          0.564979  
         C5        1.0000    0.12480   0.83800   0.20640   Biso      1.000     C          0.5447569999999999  
         C6        1.0000    0.30400   0.77420   0.36440   Biso      1.000     C          0.173534  
         C7        1.0000    0.46170   0.75970   0.39720   Biso      1.000     C          0.5649810000000001  
         C8        1.0000    0.62480   0.66200   0.79360   Biso      1.000     C          0.544758  
         C9        1.0000    0.37520   0.16200   0.70640   Biso      1.000     C          0.544758  
         C10       1.0000    0.78270   0.66470   0.76280   Biso      1.000     C          0.209866  
         C11       1.0000    0.96170   0.74030   0.60280   Biso      1.000     C          0.5649810000000001  
         C12       1.0000    0.87520   0.33800   0.29360   Biso      1.000     C          0.544759  
         C13       1.0000    0.71730   0.33530   0.26280   Biso      1.000     C          0.209882  
         C14       1.0000    0.69600   0.27420   0.13560   Biso      1.000     C          0.173515  
         C15       1.0000    0.53830   0.25970   0.10280   Biso      1.000     C          0.564984  
         C16       1.0000    0.80400   0.72580   0.63560   Biso      1.000     C          0.173549  
         O1        1.0000    0.34080   0.97370   0.22860   Biso      1.000     O          -0.381312           
         O2        1.0000    0.23320   0.85550   0.45580   Biso      1.000     O          -0.338071           
         O3        1.0000    0.48910   0.76080   0.50980   Biso      1.000     O          -0.577771           
         O4        1.0000    0.54810   0.74320   0.31370   Biso      1.000     O          -0.553022           
         O5        1.0000    0.06020   0.72300   0.21510   Biso      1.000     O          -0.577596           
         O6        1.0000    0.51090   0.26080   0.99020   Biso      1.000     O          -0.577771           
         O7        1.0000    0.95190   0.25680   0.81370   Biso      1.000     O          -0.5530229999999999           
         O8        1.0000    0.56990   0.54780   0.82630   Biso      1.000     O          -0.572946           
         O9        1.0000    0.01090   0.23920   0.00980   Biso      1.000     O          -0.57777  
         O10       1.0000    0.26680   0.14450   0.95580   Biso      1.000     O          -0.338074           
         O11       1.0000    0.15920   0.02630   0.72860   Biso      1.000     O          -0.381306           
         O12       1.0000    0.06990   0.95220   0.17370   Biso      1.000     O          -0.5729449999999999           
         O13       1.0000    0.56020   0.77700   0.78490   Biso      1.000     O          -0.5775939999999999           
         O14       1.0000    0.43010   0.04780   0.67370   Biso      1.000     O          -0.5729449999999999           
         O15       1.0000    0.73320   0.64450   0.54420   Biso      1.000     O          -0.338084           
         O16       1.0000    0.98910   0.73920   0.49020   Biso      1.000     O          -0.577771           
         O17       1.0000    0.04810   0.75680   0.68630   Biso      1.000     O          -0.553024           
         O18       1.0000    0.93010   0.45220   0.32630   Biso      1.000     O          -0.5729449999999999           
         O19       1.0000    0.93980   0.22300   0.28490   Biso      1.000     O          -0.577596           
         O20       1.0000    0.65920   0.47370   0.27140   Biso      1.000     O          -0.381306           
         O21       1.0000    0.76680   0.35550   0.04420   Biso      1.000     O          -0.338055           
         O22       1.0000    0.43980   0.27700   0.71510   Biso      1.000     O          -0.577595           
         O23       1.0000    0.45190   0.24320   0.18630   Biso      1.000     O          -0.553022           
         O24       1.0000    0.84080   0.52630   0.77140   Biso      1.000     O          -0.381291           
         Sr1       1.0000    0.68148   0.30703   0.81526   Biso      1.000     Sr          1.507552  
         Sr2       1.0000    0.81852   0.69297   0.31526   Biso      1.000     Sr          1.507556  
         Sr3       1.0000    0.31852   0.80703   0.68474   Biso      1.000     Sr          1.507555  
         Sr4       1.0000    0.18148   0.19297   0.18474   Biso      1.000     Sr          1.507556 