
##########################################################################
#               Crystallographic Information Format file
#               Produced by PyCifRW module
#
#  This is a CIF file.  CIF has been adopted by the International
#  Union of Crystallography as the standard for data archiving and
#  transmission.
#
#  For information on this file format, follow the CIF links at
#  http://www.iucr.org
##########################################################################

data_image0

_cell_length_a                          9.4891
_cell_length_b                          9.5461
_cell_length_c                          10.9842
_cell_angle_alpha                       90
_cell_angle_beta                        90
_cell_angle_gamma                       90
_symmetry_space_group_name_H-M          'P 1'
_symmetry_int_tables_number             1
loop_
  _symmetry_equiv_pos_as_xyz
         'x, y, z' 
loop_
  _atom_site_label
  _atom_site_occupancy
  _atom_site_fract_x
  _atom_site_fract_y
  _atom_site_fract_z
  _atom_site_thermal_displace_type
  _atom_site_B_iso_or_equiv
  _atom_site_type_symbol
  _atom_site_charge
         C1        1.0000    0.30340   0.77610   0.36360   Biso      1.000     C          0.084175  
         C2        1.0000    0.37610   0.16150   0.70720   Biso      1.000     C          0.599693  
         C3        1.0000    0.21790   0.16300   0.73790   Biso      1.000     C          0.015643  
         C4        1.0000    0.19660   0.22390   0.86360   Biso      1.000     C          0.084175  
         C5        1.0000    0.03840   0.23910   0.89690   Biso      1.000     C          0.611182  
         C6        1.0000    0.12390   0.83850   0.20720   Biso      1.000     C          0.599693  
         C7        1.0000    0.28210   0.83700   0.23790   Biso      1.000     C          0.015643  
         C8        1.0000    0.46160   0.76090   0.39690   Biso      1.000     C          0.611182  
         C9        1.0000    0.62390   0.66150   0.79280   Biso      1.000     C          0.599693  
         C10       1.0000    0.78210   0.66300   0.76210   Biso      1.000     C          0.015644  
         C11       1.0000    0.80340   0.72390   0.63640   Biso      1.000     C          0.084177  
         C12       1.0000    0.96160   0.73910   0.60310   Biso      1.000     C          0.611182  
         C13       1.0000    0.87610   0.33850   0.29280   Biso      1.000     C          0.599693  
         C14       1.0000    0.71790   0.33700   0.26210   Biso      1.000     C          0.015643  
         C15       1.0000    0.69660   0.27610   0.13640   Biso      1.000     C          0.084176  
         C16       1.0000    0.53840   0.26090   0.10310   Biso      1.000     C          0.611182  
         Eu1       1.0000    0.18189   0.19323   0.18458   Biso      1.000     Eu          1.435709  
         Eu2       1.0000    0.31811   0.80677   0.68458   Biso      1.000     Eu          1.435709  
         Eu3       1.0000    0.81811   0.69323   0.31542   Biso      1.000     Eu          1.435709  
         Eu4       1.0000    0.68189   0.30677   0.81542   Biso      1.000     Eu          1.43571   
         H1        1.0000    0.32430   0.15620   0.96290   Biso      1.000     H          0.624737  
         H2        1.0000    0.22350   0.31210   0.86250   Biso      1.000     H          0.087145  
         H3        1.0000    0.72350   0.18790   0.13750   Biso      1.000     H          0.087145  
         H4        1.0000    0.67680   0.28590   0.31810   Biso      1.000     H          0.093303  
         H5        1.0000    0.58010   0.45590   0.31780   Biso      1.000     H          0.375666  
         H6        1.0000    0.77650   0.81210   0.63750   Biso      1.000     H          0.087145  
         H7        1.0000    0.82430   0.34380   0.03710   Biso      1.000     H          0.624737  
         H8        1.0000    0.82320   0.71410   0.81810   Biso      1.000     H          0.093302  
         H9        1.0000    0.91990   0.54410   0.81780   Biso      1.000     H          0.375666  
         H10       1.0000    0.27650   0.68790   0.36250   Biso      1.000     H          0.087145  
         H11       1.0000    0.17570   0.84380   0.46290   Biso      1.000     H          0.624737  
         H12       1.0000    0.32320   0.78590   0.18190   Biso      1.000     H          0.093302  
         H13       1.0000    0.41990   0.95590   0.18220   Biso      1.000     H          0.375666  
         H14       1.0000    0.08010   0.04410   0.68220   Biso      1.000     H          0.375666  
         H15       1.0000    0.67570   0.65620   0.53710   Biso      1.000     H          0.624737  
         H16       1.0000    0.17680   0.21410   0.68190   Biso      1.000     H          0.093303  
         O1        1.0000    0.48920   0.76140   0.50880   Biso      1.000     O          -0.617551           
         O2        1.0000    0.23460   0.85570   0.45550   Biso      1.000     O          -0.862441           
         O3        1.0000    0.33980   0.97360   0.22780   Biso      1.000     O          -0.510009           
         O4        1.0000    0.05990   0.72390   0.21480   Biso      1.000     O          -0.652206           
         O5        1.0000    0.26540   0.14430   0.95550   Biso      1.000     O          -0.862441           
         O6        1.0000    0.95200   0.25750   0.81340   Biso      1.000     O          -0.650588           
         O7        1.0000    0.01080   0.23860   0.00880   Biso      1.000     O          -0.61755  
         O8        1.0000    0.54800   0.74250   0.31340   Biso      1.000     O          -0.650588           
         O9        1.0000    0.16020   0.02640   0.72780   Biso      1.000     O          -0.510009           
         O10       1.0000    0.06960   0.95240   0.17290   Biso      1.000     O          -0.63446  
         O11       1.0000    0.56960   0.54760   0.82710   Biso      1.000     O          -0.63446  
         O12       1.0000    0.76540   0.35570   0.04450   Biso      1.000     O          -0.862442           
         O13       1.0000    0.83980   0.52640   0.77220   Biso      1.000     O          -0.510009           
         O14       1.0000    0.73460   0.64430   0.54450   Biso      1.000     O          -0.862442           
         O15       1.0000    0.98920   0.73860   0.49120   Biso      1.000     O          -0.617551           
         O16       1.0000    0.04800   0.75750   0.68660   Biso      1.000     O          -0.650587           
         O17       1.0000    0.93040   0.45240   0.32710   Biso      1.000     O          -0.634459           
         O18       1.0000    0.94010   0.22390   0.28520   Biso      1.000     O          -0.652205           
         O19       1.0000    0.66020   0.47360   0.27220   Biso      1.000     O          -0.510009           
         O20       1.0000    0.51080   0.26140   0.99120   Biso      1.000     O          -0.617551           
         O21       1.0000    0.45200   0.24250   0.18660   Biso      1.000     O          -0.650588           
         O22       1.0000    0.44010   0.27610   0.71480   Biso      1.000     O          -0.652205           
         O23       1.0000    0.55990   0.77610   0.78520   Biso      1.000     O          -0.652205           
         O24       1.0000    0.43040   0.04760   0.67290   Biso      1.000     O          -0.63446 