
##########################################################################
#               Crystallographic Information Format file
#               Produced by PyCifRW module
#
#  This is a CIF file.  CIF has been adopted by the International
#  Union of Crystallography as the standard for data archiving and
#  transmission.
#
#  For information on this file format, follow the CIF links at
#  http://www.iucr.org
##########################################################################

data_image0

_cell_length_a                          11.7436
_cell_length_b                          11.7436
_cell_length_c                          20.979
_cell_angle_alpha                       97.3327
_cell_angle_beta                        97.3327
_cell_angle_gamma                       100.333
_symmetry_space_group_name_H-M          'P 1'
_symmetry_int_tables_number             1
loop_
  _symmetry_equiv_pos_as_xyz
         'x, y, z' 
loop_
  _atom_site_label
  _atom_site_occupancy
  _atom_site_fract_x
  _atom_site_fract_y
  _atom_site_fract_z
  _atom_site_thermal_displace_type
  _atom_site_B_iso_or_equiv
  _atom_site_type_symbol
  _atom_site_charge
         C1        1.0000    0.33950   0.51110   0.06740   Biso      1.000     C          -0.110445           
         C2        1.0000    0.89760   0.20480   0.64020   Biso      1.000     C          0.643392  
         C3        1.0000    0.42080   0.96040   0.41420   Biso      1.000     C          -0.147206           
         C4        1.0000    0.55910   0.01050   0.51690   Biso      1.000     C          0.080247  
         C5        1.0000    0.64990   0.99890   0.48010   Biso      1.000     C          -0.135424           
         C6        1.0000    0.62660   0.97200   0.41400   Biso      1.000     C          -0.109149           
         C7        1.0000    0.51180   0.95300   0.38080   Biso      1.000     C          -0.010148           
         C8        1.0000    0.49080   0.93340   0.30870   Biso      1.000     C          0.620328  
         C9        1.0000    0.52640   0.62820   0.06540   Biso      1.000     C          -0.17339100000000002          
         C10       1.0000    0.45530   0.45090   0.98730   Biso      1.000     C          0.083816  
         C11       1.0000    0.35340   0.43240   0.01650   Biso      1.000     C          -0.15553499999999998          
         C12       1.0000    0.50920   0.06660   0.69130   Biso      1.000     C          0.620328  
         C13       1.0000    0.42600   0.61000   0.09320   Biso      1.000     C          -0.024835           
         C14       1.0000    0.40950   0.69810   0.14820   Biso      1.000     C          0.658981  
         C15       1.0000    0.14370   0.98330   0.04180   Biso      1.000     C          -0.158728           
         C16       1.0000    0.94110   0.98790   0.00470   Biso      1.000     C          0.08026   
         C17       1.0000    0.91280   0.93660   0.05930   Biso      1.000     C          -0.149695           
         C18       1.0000    0.99800   0.90980   0.10240   Biso      1.000     C          -0.10749700000000001          
         C19       1.0000    0.11340   0.93120   0.09370   Biso      1.000     C          -0.024513999999999998         
         C20       1.0000    0.20480   0.89760   0.14020   Biso      1.000     C          0.64339   
         C21       1.0000    0.03960   0.57920   0.08580   Biso      1.000     C          -0.147206           
         C22       1.0000    0.98950   0.44090   0.98310   Biso      1.000     C          0.080247  
         C23       1.0000    0.00110   0.35010   0.01990   Biso      1.000     C          -0.135425           
         C24       1.0000    0.02800   0.37340   0.08600   Biso      1.000     C          -0.10915  
         C25       1.0000    0.93120   0.11340   0.59370   Biso      1.000     C          -0.024523           
         C26       1.0000    0.04700   0.48820   0.11920   Biso      1.000     C          -0.010148           
         C27       1.0000    0.90980   0.99800   0.60240   Biso      1.000     C          -0.107499           
         C28       1.0000    0.98790   0.94110   0.50470   Biso      1.000     C          0.080259  
         C29       1.0000    0.64660   0.56760   0.98350   Biso      1.000     C          -0.15554300000000001          
         C30       1.0000    0.66050   0.48890   0.93260   Biso      1.000     C          -0.11043599999999999          
         C31       1.0000    0.57400   0.39000   0.90680   Biso      1.000     C          -0.024842           
         C32       1.0000    0.59050   0.30190   0.85180   Biso      1.000     C          0.658981  
         C33       1.0000    0.85630   0.01670   0.95820   Biso      1.000     C          -0.158728           
         C34       1.0000    0.05890   0.01210   0.99530   Biso      1.000     C          0.08026   
         C35       1.0000    0.08720   0.06340   0.94070   Biso      1.000     C          -0.149695           
         C36       1.0000    0.00200   0.09020   0.89760   Biso      1.000     C          -0.107498           
         C37       1.0000    0.88660   0.06880   0.90630   Biso      1.000     C          -0.024513999999999998         
         C38       1.0000    0.79520   0.10240   0.85980   Biso      1.000     C          0.64339   
         C39       1.0000    0.96040   0.42080   0.91420   Biso      1.000     C          -0.147205           
         C40       1.0000    0.01050   0.55910   0.01690   Biso      1.000     C          0.080248  
         C41       1.0000    0.99890   0.64990   0.98010   Biso      1.000     C          -0.135425           
         C42       1.0000    0.97200   0.62660   0.91400   Biso      1.000     C          -0.109149           
         C43       1.0000    0.95300   0.51180   0.88080   Biso      1.000     C          -0.010149           
         C44       1.0000    0.93340   0.49080   0.80870   Biso      1.000     C          0.620328  
         C45       1.0000    0.62820   0.52640   0.56540   Biso      1.000     C          -0.17339000000000002          
         C46       1.0000    0.45090   0.45530   0.48730   Biso      1.000     C          0.08381799999999999           
         C47       1.0000    0.43240   0.35340   0.51650   Biso      1.000     C          -0.155542           
         C48       1.0000    0.51110   0.33950   0.56740   Biso      1.000     C          -0.110437           
         C49       1.0000    0.61000   0.42600   0.59320   Biso      1.000     C          -0.024836           
         C50       1.0000    0.69810   0.40950   0.64820   Biso      1.000     C          0.658981  
         C51       1.0000    0.98330   0.14370   0.54180   Biso      1.000     C          -0.158723           
         C52       1.0000    0.93660   0.91280   0.55930   Biso      1.000     C          -0.14968900000000002          
         C53       1.0000    0.06660   0.50920   0.19130   Biso      1.000     C          0.620328  
         C54       1.0000    0.37180   0.47360   0.43460   Biso      1.000     C          -0.17338900000000002          
         C55       1.0000    0.54910   0.54470   0.51270   Biso      1.000     C          0.08381799999999999           
         C56       1.0000    0.57920   0.03960   0.58580   Biso      1.000     C          -0.147205           
         C57       1.0000    0.44090   0.98950   0.48310   Biso      1.000     C          0.080248  
         C58       1.0000    0.35010   0.00110   0.51990   Biso      1.000     C          -0.135424           
         C59       1.0000    0.37340   0.02800   0.58600   Biso      1.000     C          -0.109149           
         C60       1.0000    0.48820   0.04700   0.61920   Biso      1.000     C          -0.010148           
         C61       1.0000    0.54470   0.54910   0.01270   Biso      1.000     C          0.08382   
         C62       1.0000    0.10240   0.79520   0.35980   Biso      1.000     C          0.6433909999999999  
         C63       1.0000    0.06880   0.88660   0.40630   Biso      1.000     C          -0.024523           
         C64       1.0000    0.47360   0.37180   0.93460   Biso      1.000     C          -0.17338399999999998          
         C65       1.0000    0.06340   0.08720   0.44070   Biso      1.000     C          -0.149696           
         C66       1.0000    0.01210   0.05890   0.49530   Biso      1.000     C          0.080259  
         C67       1.0000    0.01670   0.85630   0.45820   Biso      1.000     C          -0.158723           
         C68       1.0000    0.30190   0.59050   0.35180   Biso      1.000     C          0.658981  
         C69       1.0000    0.09020   0.00200   0.39760   Biso      1.000     C          -0.107492           
         C70       1.0000    0.48890   0.66050   0.43260   Biso      1.000     C          -0.110445           
         C71       1.0000    0.56760   0.64660   0.48350   Biso      1.000     C          -0.15553499999999998          
         C72       1.0000    0.39000   0.57400   0.40680   Biso      1.000     C          -0.024836           
         H1        1.0000    0.26920   0.49820   0.08570   Biso      1.000     H          0.10320499999999999           
         H2        1.0000    0.22390   0.00050   0.03670   Biso      1.000     H          0.117861  
         H3        1.0000    0.83350   0.92030   0.06630   Biso      1.000     H          0.116424  
         H4        1.0000    0.97700   0.87560   0.13900   Biso      1.000     H          0.12280899999999999           
         H5        1.0000    0.05390   0.65690   0.10870   Biso      1.000     H          0.126197  
         H6        1.0000    0.98990   0.27170   0.99840   Biso      1.000     H          0.10746099999999999           
         H7        1.0000    0.30420   0.41480   0.41780   Biso      1.000     H          0.11728   
         H8        1.0000    0.29400   0.36460   0.00070   Biso      1.000     H          0.111802  
         H9        1.0000    0.50180   0.73080   0.41430   Biso      1.000     H          0.10320399999999999           
         H10       1.0000    0.99950   0.77610   0.46330   Biso      1.000     H          0.11785999999999999           
         H11       1.0000    0.07970   0.16650   0.43370   Biso      1.000     H          0.116424  
         H12       1.0000    0.12440   0.02300   0.36100   Biso      1.000     H          0.12280899999999999           
         H13       1.0000    0.03390   0.31070   0.11000   Biso      1.000     H          0.12250899999999999           
         H14       1.0000    0.63540   0.70600   0.49930   Biso      1.000     H          0.111802  
         H15       1.0000    0.68930   0.96610   0.39000   Biso      1.000     H          0.12250899999999999           
         H16       1.0000    0.72830   0.01010   0.50160   Biso      1.000     H          0.10746099999999999           
         H17       1.0000    0.65690   0.05390   0.60870   Biso      1.000     H          0.126197  
         H18       1.0000    0.27170   0.98990   0.49840   Biso      1.000     H          0.10746099999999999           
         H19       1.0000    0.31070   0.03390   0.61000   Biso      1.000     H          0.12250899999999999           
         H20       1.0000    0.41480   0.30420   0.91780   Biso      1.000     H          0.11728   
         H21       1.0000    0.70600   0.63540   0.99930   Biso      1.000     H          0.111803  
         H22       1.0000    0.73080   0.50180   0.91430   Biso      1.000     H          0.10320399999999999           
         H23       1.0000    0.77610   0.99950   0.96330   Biso      1.000     H          0.117861  
         H24       1.0000    0.16650   0.07970   0.93370   Biso      1.000     H          0.116424  
         H25       1.0000    0.58520   0.69580   0.08220   Biso      1.000     H          0.11728   
         H26       1.0000    0.02300   0.12440   0.86100   Biso      1.000     H          0.12280899999999999           
         H27       1.0000    0.01010   0.72830   0.00160   Biso      1.000     H          0.10746099999999999           
         H28       1.0000    0.96610   0.68930   0.89000   Biso      1.000     H          0.12250899999999999           
         H29       1.0000    0.69580   0.58520   0.58220   Biso      1.000     H          0.11728   
         H30       1.0000    0.36460   0.29400   0.50070   Biso      1.000     H          0.111803  
         H31       1.0000    0.49820   0.26920   0.58570   Biso      1.000     H          0.10320399999999999           
         H32       1.0000    0.92030   0.83350   0.56630   Biso      1.000     H          0.116423  
         H33       1.0000    0.87560   0.97700   0.63900   Biso      1.000     H          0.12280899999999999           
         H34       1.0000    0.34310   0.94610   0.39130   Biso      1.000     H          0.126197  
         H35       1.0000    0.94610   0.34310   0.89130   Biso      1.000     H          0.126197  
         H36       1.0000    0.00050   0.22390   0.53670   Biso      1.000     H          0.11785999999999999           
         Mg1       1.0000    0.04988   0.54042   0.30768   Biso      1.000     Mg          1.445214  
         Mg2       1.0000    0.75185   0.24815   0.75000   Biso      1.000     Mg          1.412558  
         Mg3       1.0000    0.24815   0.75185   0.25000   Biso      1.000     Mg          1.412558  
         Mg4       1.0000    0.54042   0.04988   0.80768   Biso      1.000     Mg          1.445214  
         Mg5       1.0000    0.95012   0.45958   0.69232   Biso      1.000     Mg          1.445214  
         Mg6       1.0000    0.45958   0.95012   0.19232   Biso      1.000     Mg          1.445214  
         O1        1.0000    0.51490   0.20810   0.83983   Biso      1.000     O          -0.7216779999999999           
         O2        1.0000    0.67470   0.32910   0.82234   Biso      1.000     O          -0.6341600000000001           
         O3        1.0000    0.82890   0.15530   0.81544   Biso      1.000     O          -0.609379           
         O4        1.0000    0.68990   0.07370   0.86920   Biso      1.000     O          -0.728649           
         O5        1.0000    0.96470   0.57670   0.78016   Biso      1.000     O          -0.642212           
         O6        1.0000    0.89500   0.38860   0.77693   Biso      1.000     O          -0.721422           
         O7        1.0000    0.79190   0.48510   0.66017   Biso      1.000     O          -0.7216779999999999           
         O8        1.0000    0.67090   0.32530   0.67766   Biso      1.000     O          -0.6341600000000001           
         O9        1.0000    0.84470   0.17110   0.68456   Biso      1.000     O          -0.609379           
         O10       1.0000    0.92630   0.31010   0.63080   Biso      1.000     O          -0.728649           
         O11       1.0000    0.57670   0.96470   0.28016   Biso      1.000     O          -0.642212           
         O12       1.0000    0.48510   0.79190   0.16017   Biso      1.000     O          -0.7216779999999999           
         O13       1.0000    0.61140   0.10500   0.72307   Biso      1.000     O          -0.721422           
         O14       1.0000    0.32530   0.67090   0.17766   Biso      1.000     O          -0.634159           
         O15       1.0000    0.17110   0.84470   0.18456   Biso      1.000     O          -0.609379           
         O16       1.0000    0.31010   0.92630   0.13080   Biso      1.000     O          -0.728649           
         O17       1.0000    0.03530   0.42330   0.21984   Biso      1.000     O          -0.642212           
         O18       1.0000    0.10500   0.61140   0.22307   Biso      1.000     O          -0.721422           
         O19       1.0000    0.20810   0.51490   0.33983   Biso      1.000     O          -0.7216779999999999           
         O20       1.0000    0.32910   0.67470   0.32234   Biso      1.000     O          -0.634159           
         O21       1.0000    0.15530   0.82890   0.31544   Biso      1.000     O          -0.609379           
         O22       1.0000    0.07370   0.68990   0.36920   Biso      1.000     O          -0.728649           
         O23       1.0000    0.38860   0.89500   0.27693   Biso      1.000     O          -0.721422           
         O24       1.0000    0.42330   0.03530   0.71984   Biso      1.000     O          -0.642212 