
##########################################################################
#               Crystallographic Information Format file
#               Produced by PyCifRW module
#
#  This is a CIF file.  CIF has been adopted by the International
#  Union of Crystallography as the standard for data archiving and
#  transmission.
#
#  For information on this file format, follow the CIF links at
#  http://www.iucr.org
##########################################################################

data_image0

_cell_length_a                          10.327
_cell_length_b                          11.067
_cell_length_c                          11.692
_cell_angle_alpha                       112.33
_cell_angle_beta                        97.31
_cell_angle_gamma                       106.79
_symmetry_space_group_name_H-M          'P 1'
_symmetry_int_tables_number             1
loop_
  _symmetry_equiv_pos_as_xyz
         'x, y, z' 
loop_
  _atom_site_label
  _atom_site_occupancy
  _atom_site_fract_x
  _atom_site_fract_y
  _atom_site_fract_z
  _atom_site_thermal_displace_type
  _atom_site_B_iso_or_equiv
  _atom_site_type_symbol
  _atom_site_charge
         C1        1.0000    0.26850   0.29460   0.92200   Biso      1.000     C          -0.018227           
         C2        1.0000    0.57330   0.69550   0.56350   Biso      1.000     C          -0.162182           
         C3        1.0000    0.49760   0.44890   0.52330   Biso      1.000     C          0.080351  
         C4        1.0000    0.11740   0.20050   0.88520   Biso      1.000     C          0.612571  
         C5        1.0000    0.37620   0.24070   0.93430   Biso      1.000     C          -0.102564           
         C6        1.0000    0.51460   0.32730   0.97530   Biso      1.000     C          -0.151689           
         C7        1.0000    0.55370   0.47270   0.00640   Biso      1.000     C          0.079924  
         C8        1.0000    0.30400   0.43460   0.95000   Biso      1.000     C          -0.165505           
         C9        1.0000    0.08950   0.74470   0.87530   Biso      1.000     C          0.620936  
         C10       1.0000    0.07820   0.64960   0.73960   Biso      1.000     C          -0.024636           
         C11       1.0000    0.96830   0.62470   0.64370   Biso      1.000     C          -0.155143           
         C12       1.0000    0.94970   0.53240   0.51400   Biso      1.000     C          0.083486  
         C13       1.0000    0.83740   0.50430   0.41360   Biso      1.000     C          -0.137872           
         C14       1.0000    0.17660   0.58420   0.71080   Biso      1.000     C          -0.113534           
         C15       1.0000    0.27920   0.11210   0.22170   Biso      1.000     C          0.609036  
         C16       1.0000    0.36080   0.26420   0.31110   Biso      1.000     C          -0.017126           
         C17       1.0000    0.36660   0.36730   0.26510   Biso      1.000     C          -0.102078           
         C18       1.0000    0.43690   0.50630   0.34580   Biso      1.000     C          -0.142753           
         C19       1.0000    0.42670   0.30450   0.43650   Biso      1.000     C          -0.162176           
         C20       1.0000    0.50240   0.55110   0.47670   Biso      1.000     C          0.080353  
         C21       1.0000    0.88260   0.79950   0.11480   Biso      1.000     C          0.612571  
         C22       1.0000    0.73150   0.70540   0.07800   Biso      1.000     C          -0.018227           
         C23       1.0000    0.62380   0.75930   0.06570   Biso      1.000     C          -0.102565           
         C24       1.0000    0.48540   0.67270   0.02470   Biso      1.000     C          -0.151689           
         C25       1.0000    0.44630   0.52730   0.99360   Biso      1.000     C          0.079923  
         C26       1.0000    0.69600   0.56540   0.05000   Biso      1.000     C          -0.165506           
         C27       1.0000    0.56310   0.49370   0.65420   Biso      1.000     C          -0.14276  
         C28       1.0000    0.63920   0.73580   0.68890   Biso      1.000     C          -0.017123           
         C29       1.0000    0.63340   0.63270   0.73490   Biso      1.000     C          -0.102069           
         C30       1.0000    0.82340   0.41580   0.28920   Biso      1.000     C          -0.113529           
         C31       1.0000    0.16260   0.49570   0.58640   Biso      1.000     C          -0.137867           
         C32       1.0000    0.05030   0.46760   0.48600   Biso      1.000     C          0.083485  
         C33       1.0000    0.03170   0.37530   0.35630   Biso      1.000     C          -0.155146           
         C34       1.0000    0.92180   0.35040   0.26040   Biso      1.000     C          -0.024633           
         C35       1.0000    0.91050   0.25530   0.12470   Biso      1.000     C          0.620936  
         C36       1.0000    0.72080   0.88790   0.77830   Biso      1.000     C          0.609037  
         H1        1.0000    0.77190   0.54630   0.43200   Biso      1.000     H          0.114046  
         H2        1.0000    0.22810   0.45370   0.56800   Biso      1.000     H          0.114046  
         H3        1.0000    0.74930   0.39890   0.22380   Biso      1.000     H          0.115958  
         H4        1.0000    0.67750   0.66020   0.82000   Biso      1.000     H          0.115461  
         H5        1.0000    0.55810   0.42730   0.68550   Biso      1.000     H          0.121175  
         H6        1.0000    0.57510   0.76360   0.53490   Biso      1.000     H          0.131802  
         H7        1.0000    0.35250   0.14600   0.91420   Biso      1.000     H          0.128841  
         H8        1.0000    0.58400   0.29060   0.98310   Biso      1.000     H          0.118073  
         H9        1.0000    0.23320   0.46910   0.94010   Biso      1.000     H          0.126666  
         H10       1.0000    0.32250   0.33980   0.18000   Biso      1.000     H          0.115461  
         H11       1.0000    0.25070   0.60110   0.77620   Biso      1.000     H          0.115958  
         H12       1.0000    0.09520   0.33090   0.33600   Biso      1.000     H          0.124308  
         H13       1.0000    0.44190   0.57270   0.31450   Biso      1.000     H          0.121174  
         H14       1.0000    0.42490   0.23640   0.46510   Biso      1.000     H          0.131801  
         H15       1.0000    0.64750   0.85400   0.08580   Biso      1.000     H          0.128841  
         H16       1.0000    0.41600   0.70940   0.01690   Biso      1.000     H          0.118073  
         H17       1.0000    0.76680   0.53090   0.05990   Biso      1.000     H          0.126666  
         H18       1.0000    0.90480   0.66910   0.66400   Biso      1.000     H          0.124308  
         O1        1.0000    0.00650   0.80845   0.89271   Biso      1.000     O          -0.56375  
         O2        1.0000    0.20870   0.07819   0.11192   Biso      1.000     O          -0.57304  
         O3        1.0000    0.02710   0.25320   0.86540   Biso      1.000     O          -0.576524           
         O4        1.0000    0.18100   0.75060   0.96378   Biso      1.000     O          -0.575737           
         O5        1.0000    0.28640   0.02213   0.26416   Biso      1.000     O          -0.569517           
         O6        1.0000    0.08630   0.07771   0.87559   Biso      1.000     O          -0.574033           
         O7        1.0000    0.97290   0.74680   0.13460   Biso      1.000     O          -0.576524           
         O8        1.0000    0.71360   0.97787   0.73584   Biso      1.000     O          -0.569518           
         O9        1.0000    0.81900   0.24940   0.03622   Biso      1.000     O          -0.575738           
         O10       1.0000    0.99350   0.19155   0.10729   Biso      1.000     O          -0.56375  
         O11       1.0000    0.91370   0.92229   0.12441   Biso      1.000     O          -0.574033           
         O12       1.0000    0.79130   0.92181   0.88808   Biso      1.000     O          -0.573041           
         Zn1       1.0000    0.00000   0.00000   0.00000   Biso      1.000     Zn          1.082362  
         Zn2       1.0000    0.16664   0.83289   0.13998   Biso      1.000     Zn          1.002087  
         Zn3       1.0000    0.83336   0.16711   0.86002   Biso      1.000     Zn          1.002087 