
##########################################################################
#               Crystallographic Information Format file
#               Produced by PyCifRW module
#
#  This is a CIF file.  CIF has been adopted by the International
#  Union of Crystallography as the standard for data archiving and
#  transmission.
#
#  For information on this file format, follow the CIF links at
#  http://www.iucr.org
##########################################################################

data_image0

_cell_length_a                          13.7506
_cell_length_b                          17.8675
_cell_length_c                          17.8675
_cell_angle_alpha                       66.3412
_cell_angle_beta                        75.1358
_cell_angle_gamma                       104.864
_symmetry_space_group_name_H-M          'P 1'
_symmetry_int_tables_number             1
loop_
  _symmetry_equiv_pos_as_xyz
         'x, y, z' 
loop_
  _atom_site_label
  _atom_site_occupancy
  _atom_site_fract_x
  _atom_site_fract_y
  _atom_site_fract_z
  _atom_site_thermal_displace_type
  _atom_site_B_iso_or_equiv
  _atom_site_type_symbol
  _atom_site_charge
         C1        1.0000    0.69840   0.49890   0.07170   Biso      1.000     C          -0.189956           
         C2        1.0000    0.77010   0.07170   0.42940   Biso      1.000     C          -0.191526           
         C3        1.0000    0.82920   0.16140   0.37750   Biso      1.000     C          0.118086  
         C4        1.0000    0.15320   0.06690   0.67580   Biso      1.000     C          -0.141036           
         C5        1.0000    0.06260   0.98910   0.72010   Biso      1.000     C          -0.045253           
         C6        1.0000    0.99580   0.97410   0.68080   Biso      1.000     C          -0.115585           
         C7        1.0000    0.02010   0.04170   0.59210   Biso      1.000     C          0.103048  
         C8        1.0000    0.66780   0.46110   0.16140   Biso      1.000     C          0.116101  
         C9        1.0000    0.63950   0.54340   0.03190   Biso      1.000     C          0.123198  
         C10       1.0000    0.55090   0.54290   0.08690   Biso      1.000     C          -0.182719           
         C11       1.0000    0.52320   0.50100   0.17850   Biso      1.000     C          0.115502  
         C12       1.0000    0.73470   0.41840   0.20510   Biso      1.000     C          0.52825   
         C13       1.0000    0.71750   0.71590   0.79400   Biso      1.000     C          0.117163  
         C14       1.0000    0.67330   0.67140   0.88510   Biso      1.000     C          -0.201318           
         C15       1.0000    0.67730   0.58940   0.93330   Biso      1.000     C          0.093401  
         C16       1.0000    0.72300   0.55330   0.88520   Biso      1.000     C          -0.179112           
         C17       1.0000    0.76750   0.60100   0.79160   Biso      1.000     C          0.110048  
         C18       1.0000    0.72090   0.80420   0.73800   Biso      1.000     C          0.533638  
         C19       1.0000    0.76440   0.58870   0.28270   Biso      1.000     C          0.059263  
         C20       1.0000    0.82900   0.67580   0.25730   Biso      1.000     C          -0.14088  
         C21       1.0000    0.78270   0.72010   0.29080   Biso      1.000     C          -0.044898           
         C22       1.0000    0.67660   0.68080   0.34510   Biso      1.000     C          -0.115341           
         C23       1.0000    0.67140   0.03190   0.42470   Biso      1.000     C          0.125343  
         C24       1.0000    0.63780   0.08690   0.37020   Biso      1.000     C          -0.187529           
         C25       1.0000    0.70170   0.17850   0.32050   Biso      1.000     C          0.118074  
         C26       1.0000    0.93980   0.20510   0.37650   Biso      1.000     C          0.528292  
         C27       1.0000    0.16650   0.60740   0.60100   Biso      1.000     C          0.111065  
         C28       1.0000    0.16970   0.56150   0.55330   Biso      1.000     C          -0.177283           
         C29       1.0000    0.08790   0.47730   0.58940   Biso      1.000     C          0.094459  
         C30       1.0000    0.00190   0.44350   0.67140   Biso      1.000     C          -0.203131           
         C31       1.0000    0.00160   0.49010   0.71590   Biso      1.000     C          0.117477  
         C32       1.0000    0.31630   0.37650   0.41840   Biso      1.000     C          0.527679  
         C33       1.0000    0.02220   0.32050   0.50100   Biso      1.000     C          0.113904  
         C34       1.0000    0.00800   0.37020   0.54290   Biso      1.000     C          -0.18238  
         C35       1.0000    0.09610   0.42470   0.54340   Biso      1.000     C          0.119703  
         C36       1.0000    0.19950   0.42940   0.49890   Biso      1.000     C          -0.187663           
         C37       1.0000    0.61220   0.59210   0.36620   Biso      1.000     C          0.10273   
         C38       1.0000    0.20670   0.37750   0.46110   Biso      1.000     C          0.115306  
         C39       1.0000    0.02170   0.34510   0.97410   Biso      1.000     C          -0.114985           
         C40       1.0000    0.07350   0.29080   0.98910   Biso      1.000     C          -0.046658           
         C41       1.0000    0.08630   0.25730   0.06690   Biso      1.000     C          -0.144458           
         C42       1.0000    0.04710   0.28270   0.12860   Biso      1.000     C          0.062966  
         C43       1.0000    0.45890   0.73800   0.45780   Biso      1.000     C          0.53367   
         C44       1.0000    0.55910   0.79160   0.60740   Biso      1.000     C          0.110658  
         C45       1.0000    0.60820   0.88520   0.56150   Biso      1.000     C          -0.176769           
         C46       1.0000    0.61060   0.93330   0.47730   Biso      1.000     C          0.092366  
         C47       1.0000    0.55840   0.88510   0.44350   Biso      1.000     C          -0.199038           
         C48       1.0000    0.51150   0.79400   0.49010   Biso      1.000     C          0.115318  
         C49       1.0000    0.97840   0.36620   0.04170   Biso      1.000     C          0.104376  
         C50       1.0000    0.17080   0.83860   0.62250   Biso      1.000     C          0.118076  
         C51       1.0000    0.22990   0.92830   0.57060   Biso      1.000     C          -0.191515           
         C52       1.0000    0.32860   0.96810   0.57530   Biso      1.000     C          0.125342  
         C53       1.0000    0.82430   0.87140   0.41130   Biso      1.000     C          0.057802  
         C54       1.0000    0.84680   0.93310   0.32420   Biso      1.000     C          -0.141036           
         C55       1.0000    0.93740   0.01090   0.27990   Biso      1.000     C          -0.045254           
         C56       1.0000    0.00420   0.02590   0.31920   Biso      1.000     C          -0.115585           
         C57       1.0000    0.97990   0.95830   0.40790   Biso      1.000     C          0.103048  
         C58       1.0000    0.33220   0.53890   0.83860   Biso      1.000     C          0.116092  
         C59       1.0000    0.30160   0.50110   0.92830   Biso      1.000     C          -0.189947           
         C60       1.0000    0.36050   0.45660   0.96810   Biso      1.000     C          0.123197  
         C61       1.0000    0.44910   0.45710   0.91310   Biso      1.000     C          -0.182718           
         C62       1.0000    0.47680   0.49900   0.82150   Biso      1.000     C          0.115501  
         C63       1.0000    0.08330   0.54220   0.19580   Biso      1.000     C          0.533372  
         C64       1.0000    0.26530   0.58160   0.79490   Biso      1.000     C          0.528251  
         C65       1.0000    0.32670   0.32860   0.11490   Biso      1.000     C          -0.201337           
         C66       1.0000    0.32270   0.41060   0.06670   Biso      1.000     C          0.093403  
         C67       1.0000    0.27700   0.44670   0.11480   Biso      1.000     C          -0.179112           
         C68       1.0000    0.23250   0.39900   0.20840   Biso      1.000     C          0.110049  
         C69       1.0000    0.27910   0.19580   0.26200   Biso      1.000     C          0.533637  
         C70       1.0000    0.23560   0.41130   0.71730   Biso      1.000     C          0.059263  
         C71       1.0000    0.17100   0.32420   0.74270   Biso      1.000     C          -0.14088  
         C72       1.0000    0.21730   0.27990   0.70920   Biso      1.000     C          -0.044898           
         C73       1.0000    0.32340   0.31920   0.65490   Biso      1.000     C          -0.115341           
         C74       1.0000    0.38780   0.40790   0.63380   Biso      1.000     C          0.10273   
         C75       1.0000    0.28250   0.28410   0.20600   Biso      1.000     C          0.11718   
         C76       1.0000    0.91670   0.45780   0.80420   Biso      1.000     C          0.533371  
         C77       1.0000    0.83350   0.39260   0.39900   Biso      1.000     C          0.111065  
         C78       1.0000    0.91210   0.52270   0.41060   Biso      1.000     C          0.094458  
         C79       1.0000    0.36220   0.91310   0.62980   Biso      1.000     C          -0.187529           
         C80       1.0000    0.29830   0.82150   0.67950   Biso      1.000     C          0.118073  
         C81       1.0000    0.06020   0.79490   0.62350   Biso      1.000     C          0.528293  
         C82       1.0000    0.48850   0.20600   0.50990   Biso      1.000     C          0.1153    
         C83       1.0000    0.44160   0.11490   0.55650   Biso      1.000     C          -0.199019           
         C84       1.0000    0.38940   0.06670   0.52270   Biso      1.000     C          0.092363  
         C85       1.0000    0.39180   0.11480   0.43850   Biso      1.000     C          -0.176769           
         C86       1.0000    0.44090   0.20840   0.39260   Biso      1.000     C          0.110658  
         C87       1.0000    0.54110   0.26200   0.54220   Biso      1.000     C          0.533671  
         C88       1.0000    0.95290   0.71730   0.87140   Biso      1.000     C          0.062968  
         C89       1.0000    0.83030   0.43850   0.44670   Biso      1.000     C          -0.177283           
         C90       1.0000    0.91370   0.74270   0.93310   Biso      1.000     C          -0.144471           
         C91       1.0000    0.97830   0.65490   0.02590   Biso      1.000     C          -0.114986           
         C92       1.0000    0.02160   0.63380   0.95830   Biso      1.000     C          0.104376  
         C93       1.0000    0.79330   0.62250   0.53890   Biso      1.000     C          0.115295  
         C94       1.0000    0.80050   0.57060   0.50110   Biso      1.000     C          -0.18765  
         C95       1.0000    0.90390   0.57530   0.45660   Biso      1.000     C          0.119681  
         C96       1.0000    0.99200   0.62980   0.45710   Biso      1.000     C          -0.182358           
         C97       1.0000    0.97780   0.67950   0.49900   Biso      1.000     C          0.113902  
         C98       1.0000    0.68370   0.62350   0.58160   Biso      1.000     C          0.52768   
         C99       1.0000    0.99840   0.50990   0.28410   Biso      1.000     C          0.117459  
         C100      1.0000    0.99810   0.55650   0.32860   Biso      1.000     C          -0.203111           
         C101      1.0000    0.92650   0.70920   0.01090   Biso      1.000     C          -0.046645           
         C102      1.0000    0.17570   0.12860   0.58870   Biso      1.000     C          0.057803  
         Cd1       1.0000    0.92042   0.36654   0.22771   Biso      1.000     Cd          0.801894  
         Cd2       1.0000    0.14813   0.22771   0.40575   Biso      1.000     Cd          0.802715  
         Cd3       1.0000    0.55388   0.40575   0.36654   Biso      1.000     Cd          0.801887  
         Cd4       1.0000    0.07958   0.63346   0.77229   Biso      1.000     Cd          0.801894  
         Cd5       1.0000    0.85187   0.77229   0.59425   Biso      1.000     Cd          0.802715  
         Cd6       1.0000    0.44612   0.59425   0.63346   Biso      1.000     Cd          0.801887  
         H1        1.0000    0.35560   0.28950   0.63090   Biso      1.000     H          0.12396   
         H2        1.0000    0.22250   0.66310   0.57690   Biso      1.000     H          0.103624  
         H3        1.0000    0.23980   0.18080   0.55780   Biso      1.000     H          0.086541  
         H4        1.0000    0.19970   0.07890   0.70310   Biso      1.000     H          0.123007  
         H5        1.0000    0.04730   0.94630   0.77780   Biso      1.000     H          0.105616  
         H6        1.0000    0.93390   0.92040   0.71050   Biso      1.000     H          0.124264  
         H7        1.0000    0.97170   0.03240   0.56540   Biso      1.000     H          0.105368  
         H8        1.0000    0.46170   0.50100   0.21540   Biso      1.000     H          0.097998  
         H9        1.0000    0.50850   0.57060   0.06360   Biso      1.000     H          0.134026  
         H10       1.0000    0.22660   0.58730   0.49750   Biso      1.000     H          0.137791  
         H11       1.0000    0.63970   0.69580   0.91550   Biso      1.000     H          0.139875  
         H12       1.0000    0.72410   0.49750   0.91520   Biso      1.000     H          0.138688  
         H13       1.0000    0.79940   0.57690   0.76000   Biso      1.000     H          0.103424  
         H14       1.0000    0.75800   0.49510   0.03670   Biso      1.000     H          0.143902  
         H15       1.0000    0.94390   0.38870   0.69580   Biso      1.000     H          0.139969  
         H16       1.0000    0.26290   0.46820   0.49510   Biso      1.000     H          0.144133  
         H17       1.0000    0.93790   0.36580   0.57060   Biso      1.000     H          0.134989  
         H18       1.0000    0.79760   0.55780   0.26140   Biso      1.000     H          0.086684  
         H19       1.0000    0.93930   0.40220   0.03240   Biso      1.000     H          0.104762  
         H20       1.0000    0.46290   0.43460   0.59780   Biso      1.000     H          0.105002  
         H21       1.0000    0.10100   0.27590   0.94630   Biso      1.000     H          0.106138  
         H22       1.0000    0.12080   0.21800   0.07890   Biso      1.000     H          0.124803  
         H23       1.0000    0.05900   0.26140   0.18080   Biso      1.000     H          0.085372  
         H24       1.0000    0.55940   0.76000   0.66310   Biso      1.000     H          0.103133  
         H25       1.0000    0.63930   0.91520   0.58730   Biso      1.000     H          0.137908  
         H26       1.0000    0.55520   0.91550   0.38870   Biso      1.000     H          0.13866   
         H27       1.0000    0.67710   0.21540   0.28360   Biso      1.000     H          0.097727  
         H28       1.0000    0.57210   0.06360   0.36580   Biso      1.000     H          0.136091  
         H29       1.0000    0.79470   0.03670   0.46820   Biso      1.000     H          0.144662  
         H30       1.0000    0.96070   0.28360   0.50100   Biso      1.000     H          0.098565  
         H31       1.0000    0.90280   0.70310   0.21800   Biso      1.000     H          0.122617  
         H32       1.0000    0.01350   0.36910   0.92040   Biso      1.000     H          0.125461  
         H33       1.0000    0.64440   0.71050   0.36910   Biso      1.000     H          0.12396   
         H34       1.0000    0.76020   0.81920   0.44220   Biso      1.000     H          0.086541  
         H35       1.0000    0.80030   0.92110   0.29690   Biso      1.000     H          0.123007  
         H36       1.0000    0.06610   0.07960   0.28950   Biso      1.000     H          0.124264  
         H37       1.0000    0.02830   0.96760   0.43460   Biso      1.000     H          0.105368  
         H38       1.0000    0.24200   0.50490   0.96330   Biso      1.000     H          0.143901  
         H39       1.0000    0.49150   0.42940   0.93640   Biso      1.000     H          0.134027  
         H40       1.0000    0.77750   0.33690   0.42310   Biso      1.000     H          0.103624  
         H41       1.0000    0.53830   0.49900   0.78460   Biso      1.000     H          0.097998  
         H42       1.0000    0.27590   0.50250   0.08480   Biso      1.000     H          0.138688  
         H43       1.0000    0.20060   0.42310   0.24000   Biso      1.000     H          0.103424  
         H44       1.0000    0.20240   0.44220   0.73860   Biso      1.000     H          0.086684  
         H45       1.0000    0.09720   0.29690   0.78200   Biso      1.000     H          0.122617  
         H46       1.0000    0.17490   0.22220   0.72410   Biso      1.000     H          0.105754  
         H47       1.0000    0.82510   0.77780   0.27590   Biso      1.000     H          0.105754  
         H48       1.0000    0.36030   0.30420   0.08450   Biso      1.000     H          0.139876  
         H49       1.0000    0.77340   0.41270   0.50250   Biso      1.000     H          0.137791  
         H50       1.0000    0.95270   0.05370   0.22220   Biso      1.000     H          0.105616  
         H51       1.0000    0.03930   0.71640   0.49900   Biso      1.000     H          0.098565  
         H52       1.0000    0.20530   0.96330   0.53180   Biso      1.000     H          0.144662  
         H53       1.0000    0.42790   0.93640   0.63420   Biso      1.000     H          0.136091  
         H54       1.0000    0.32290   0.78460   0.71640   Biso      1.000     H          0.097727  
         H55       1.0000    0.05610   0.61130   0.30420   Biso      1.000     H          0.139968  
         H56       1.0000    0.44480   0.08450   0.61130   Biso      1.000     H          0.138658  
         H57       1.0000    0.36070   0.08480   0.41270   Biso      1.000     H          0.137908  
         H58       1.0000    0.94100   0.73860   0.81920   Biso      1.000     H          0.085372  
         H59       1.0000    0.44060   0.24000   0.33690   Biso      1.000     H          0.103133  
         H60       1.0000    0.89900   0.72410   0.05370   Biso      1.000     H          0.106137  
         H61       1.0000    0.98650   0.63090   0.07960   Biso      1.000     H          0.125462  
         H62       1.0000    0.06070   0.59780   0.96760   Biso      1.000     H          0.104762  
         H63       1.0000    0.73710   0.53180   0.50490   Biso      1.000     H          0.144132  
         H64       1.0000    0.06210   0.63420   0.42940   Biso      1.000     H          0.134988  
         H65       1.0000    0.87920   0.78200   0.92110   Biso      1.000     H          0.124804  
         H66       1.0000    0.53710   0.56540   0.40220   Biso      1.000     H          0.105002  
         N1        1.0000    0.91600   0.42760   0.31910   Biso      1.000     N          -0.25359  
         N2        1.0000    0.00660   0.66450   0.88310   Biso      1.000     N          -0.210568           
         N3        1.0000    0.88140   0.67650   0.53830   Biso      1.000     N          -0.250983           
         N4        1.0000    0.34210   0.45240   0.66450   Biso      1.000     N          -0.207473           
         N5        1.0000    0.41970   0.53830   0.78520   Biso      1.000     N          -0.249463           
         N6        1.0000    0.23510   0.31910   0.25330   Biso      1.000     N          -0.252629           
         N7        1.0000    0.48840   0.25330   0.42760   Biso      1.000     N          -0.252945           
         N8        1.0000    0.88970   0.88310   0.45240   Biso      1.000     N          -0.20665  
         N9        1.0000    0.20490   0.78520   0.67650   Biso      1.000     N          -0.2533   
         N10       1.0000    0.11860   0.32350   0.46170   Biso      1.000     N          -0.250984           
         N11       1.0000    0.76490   0.68090   0.74670   Biso      1.000     N          -0.252628           
         N12       1.0000    0.58030   0.46170   0.21480   Biso      1.000     N          -0.249464           
         N13       1.0000    0.11030   0.11690   0.54760   Biso      1.000     N          -0.20665  
         N14       1.0000    0.08400   0.57240   0.68090   Biso      1.000     N          -0.253592           
         N15       1.0000    0.99340   0.33550   0.11690   Biso      1.000     N          -0.210568           
         N16       1.0000    0.51160   0.74670   0.57240   Biso      1.000     N          -0.252946           
         N17       1.0000    0.79510   0.21480   0.32350   Biso      1.000     N          -0.253301           
         N18       1.0000    0.65790   0.54760   0.33550   Biso      1.000     N          -0.207473           
         O1        1.0000    0.03010   0.84330   0.56870   Biso      1.000     O          -0.532163           
         O2        1.0000    0.56770   0.34460   0.50150   Biso      1.000     O          -0.570729           
         O3        1.0000    0.55080   0.22120   0.61300   Biso      1.000     O          -0.581657           
         O4        1.0000    0.68340   0.67950   0.60730   Biso      1.000     O          -0.55305  
         O5        1.0000    0.16380   0.61300   0.16580   Biso      1.000     O          -0.581163           
         O6        1.0000    0.06920   0.50150   0.15390   Biso      1.000     O          -0.571057           
         O7        1.0000    0.00390   0.71320   0.67950   Biso      1.000     O          -0.553591           
         O8        1.0000    0.29070   0.60730   0.71320   Biso      1.000     O          -0.55422  
         O9        1.0000    0.18680   0.58800   0.84330   Biso      1.000     O          -0.532503           
         O10       1.0000    0.59880   0.56870   0.58800   Biso      1.000     O          -0.531313           
         O11       1.0000    0.67040   0.83420   0.77880   Biso      1.000     O          -0.581189           
         O12       1.0000    0.83620   0.38700   0.83420   Biso      1.000     O          -0.581162           
         O13       1.0000    0.81320   0.41200   0.15670   Biso      1.000     O          -0.532502           
         O14       1.0000    0.70930   0.39270   0.28680   Biso      1.000     O          -0.55422  
         O15       1.0000    0.93080   0.49850   0.84610   Biso      1.000     O          -0.571057           
         O16       1.0000    0.40120   0.43130   0.41200   Biso      1.000     O          -0.531313           
         O17       1.0000    0.31660   0.32050   0.39270   Biso      1.000     O          -0.55305  
         O18       1.0000    0.44920   0.77880   0.38700   Biso      1.000     O          -0.581657           
         O19       1.0000    0.43230   0.65540   0.49850   Biso      1.000     O          -0.570729           
         O20       1.0000    0.96990   0.15670   0.43130   Biso      1.000     O          -0.532163           
         O21       1.0000    0.99610   0.28680   0.32050   Biso      1.000     O          -0.553591           
         O22       1.0000    0.22310   0.15390   0.34460   Biso      1.000     O          -0.571514           
         O23       1.0000    0.77690   0.84610   0.65540   Biso      1.000     O          -0.571514           
         O24       1.0000    0.32960   0.16580   0.22120   Biso      1.000     O          -0.581188 