
##########################################################################
#               Crystallographic Information Format file
#               Produced by PyCifRW module
#
#  This is a CIF file.  CIF has been adopted by the International
#  Union of Crystallography as the standard for data archiving and
#  transmission.
#
#  For information on this file format, follow the CIF links at
#  http://www.iucr.org
##########################################################################

data_image0

_cell_length_a                          6.0997
_cell_length_b                          7.6528
_cell_length_c                          22.533
_cell_angle_alpha                       90
_cell_angle_beta                        91.606
_cell_angle_gamma                       90
_symmetry_space_group_name_H-M          'P 1'
_symmetry_int_tables_number             1
loop_
  _symmetry_equiv_pos_as_xyz
         'x, y, z' 
loop_
  _atom_site_label
  _atom_site_occupancy
  _atom_site_fract_x
  _atom_site_fract_y
  _atom_site_fract_z
  _atom_site_thermal_displace_type
  _atom_site_B_iso_or_equiv
  _atom_site_type_symbol
  _atom_site_charge
         C1        1.0000    0.04680   0.19430   0.34011   Biso      1.000     C          0.627575  
         C2        1.0000    0.18370   0.03550   0.78552   Biso      1.000     C          0.064494  
         C3        1.0000    0.36110   0.89410   0.78871   Biso      1.000     C          0.612867  
         C4        1.0000    0.58210   0.42420   0.00133   Biso      1.000     C          0.510939  
         C5        1.0000    0.95320   0.80570   0.65989   Biso      1.000     C          0.627575  
         C6        1.0000    0.81770   0.63930   0.65670   Biso      1.000     C          0.056956  
         C7        1.0000    0.81630   0.53550   0.71448   Biso      1.000     C          0.064494  
         C8        1.0000    0.63890   0.39410   0.71129   Biso      1.000     C          0.612867  
         C9        1.0000    0.41790   0.92420   0.49867   Biso      1.000     C          0.510939  
         C10       1.0000    0.95320   0.69430   0.15989   Biso      1.000     C          0.627575  
         C11       1.0000    0.81770   0.86070   0.15670   Biso      1.000     C          0.056956  
         C12       1.0000    0.81630   0.96450   0.21448   Biso      1.000     C          0.064494  
         C13       1.0000    0.63890   0.10590   0.21129   Biso      1.000     C          0.612867  
         C14       1.0000    0.41790   0.57580   0.99867   Biso      1.000     C          0.510938  
         C15       1.0000    0.18230   0.36070   0.34330   Biso      1.000     C          0.056956  
         C16       1.0000    0.18370   0.46450   0.28552   Biso      1.000     C          0.064494  
         C17       1.0000    0.36110   0.60590   0.28871   Biso      1.000     C          0.612867  
         C18       1.0000    0.58210   0.07580   0.50133   Biso      1.000     C          0.510939  
         C19       1.0000    0.18230   0.13930   0.84330   Biso      1.000     C          0.056957  
         C20       1.0000    0.04680   0.30570   0.84011   Biso      1.000     C          0.627575  
         Ce1       1.0000    0.54512   0.50171   0.85391   Biso      1.000     Ce          2.029852  
         Ce2       1.0000    0.54512   0.99829   0.35391   Biso      1.000     Ce          2.029852  
         Ce3       1.0000    0.45488   0.00171   0.64609   Biso      1.000     Ce          2.029852  
         Ce4       1.0000    0.45488   0.49829   0.14609   Biso      1.000     Ce          2.029852  
         H1        1.0000    0.04100   0.52200   0.28010   Biso      1.000     H          0.109816  
         H2        1.0000    0.44000   0.12500   0.88370   Biso      1.000     H          0.449157  
         H3        1.0000    0.30200   0.22800   0.74190   Biso      1.000     H          0.376205  
         H4        1.0000    0.12590   0.06440   0.87470   Biso      1.000     H          0.107745  
         H5        1.0000    0.04100   0.97800   0.78010   Biso      1.000     H          0.109816  
         H6        1.0000    0.56000   0.62500   0.61630   Biso      1.000     H          0.449157  
         H7        1.0000    0.12590   0.43560   0.37470   Biso      1.000     H          0.107746  
         H8        1.0000    0.87410   0.56440   0.62530   Biso      1.000     H          0.107746  
         H9        1.0000    0.95900   0.47800   0.71990   Biso      1.000     H          0.109816  
         H10       1.0000    0.56000   0.87500   0.11630   Biso      1.000     H          0.449157  
         H11       1.0000    0.69800   0.77200   0.25810   Biso      1.000     H          0.376205  
         H12       1.0000    0.87410   0.93560   0.12530   Biso      1.000     H          0.107746  
         H13       1.0000    0.95900   0.02200   0.21990   Biso      1.000     H          0.109816  
         H14       1.0000    0.44000   0.37500   0.38370   Biso      1.000     H          0.449157  
         H15       1.0000    0.69800   0.72800   0.75810   Biso      1.000     H          0.376205  
         H16       1.0000    0.30200   0.27200   0.24190   Biso      1.000     H          0.376205  
         O1        1.0000    0.85440   0.55270   0.15468   Biso      1.000     O          -0.62242  
         O2        1.0000    0.60010   0.81400   0.14171   Biso      1.000     O          -0.614839           
         O3        1.0000    0.77970   0.85970   0.26530   Biso      1.000     O          -0.59957  
         O4        1.0000    0.64960   0.21320   0.17026   Biso      1.000     O          -0.604115           
         O5        1.0000    0.48890   0.10200   0.25078   Biso      1.000     O          -0.649845           
         O6        1.0000    0.33850   0.63060   0.04632   Biso      1.000     O          -0.633805           
         O7        1.0000    0.39990   0.31400   0.35829   Biso      1.000     O          -0.614839           
         O8        1.0000    0.84620   0.21070   0.33336   Biso      1.000     O          -0.615726           
         O9        1.0000    0.14560   0.05270   0.34532   Biso      1.000     O          -0.62242  
         O10       1.0000    0.22030   0.35970   0.23470   Biso      1.000     O          -0.59957  
         O11       1.0000    0.35040   0.71320   0.32974   Biso      1.000     O          -0.604115           
         O12       1.0000    0.15380   0.71070   0.16664   Biso      1.000     O          -0.615726           
         O13       1.0000    0.51110   0.60200   0.24922   Biso      1.000     O          -0.649845           
         O14       1.0000    0.37670   0.63190   0.94824   Biso      1.000     O          -0.605287           
         O15       1.0000    0.37670   0.86810   0.44824   Biso      1.000     O          -0.605287           
         O16       1.0000    0.66150   0.36940   0.95368   Biso      1.000     O          -0.633805           
         O17       1.0000    0.48890   0.39800   0.75078   Biso      1.000     O          -0.649845           
         O18       1.0000    0.64960   0.28680   0.67026   Biso      1.000     O          -0.604115           
         O19       1.0000    0.77970   0.64030   0.76530   Biso      1.000     O          -0.59957  
         O20       1.0000    0.60010   0.68600   0.64171   Biso      1.000     O          -0.614839           
         O21       1.0000    0.85440   0.94730   0.65468   Biso      1.000     O          -0.62242  
         O22       1.0000    0.15380   0.78930   0.66664   Biso      1.000     O          -0.615726           
         O23       1.0000    0.62330   0.36810   0.05176   Biso      1.000     O          -0.605287           
         O24       1.0000    0.51110   0.89800   0.74922   Biso      1.000     O          -0.649845           
         O25       1.0000    0.35040   0.78680   0.82974   Biso      1.000     O          -0.604115           
         O26       1.0000    0.22030   0.14030   0.73470   Biso      1.000     O          -0.59957  
         O27       1.0000    0.39990   0.18600   0.85829   Biso      1.000     O          -0.614839           
         O28       1.0000    0.14560   0.44730   0.84532   Biso      1.000     O          -0.62242  
         O29       1.0000    0.84620   0.28930   0.83336   Biso      1.000     O          -0.615726           
         O30       1.0000    0.66150   0.13060   0.45368   Biso      1.000     O          -0.633805           
         O31       1.0000    0.33850   0.86940   0.54632   Biso      1.000     O          -0.633805           
         O32       1.0000    0.62330   0.13190   0.55176   Biso      1.000     O          -0.605287 