
##########################################################################
#               Crystallographic Information Format file
#               Produced by PyCifRW module
#
#  This is a CIF file.  CIF has been adopted by the International
#  Union of Crystallography as the standard for data archiving and
#  transmission.
#
#  For information on this file format, follow the CIF links at
#  http://www.iucr.org
##########################################################################

data_image0

_cell_length_a                          12.2148
_cell_length_b                          16.97
_cell_length_c                          16.97
_cell_angle_alpha                       65.5656
_cell_angle_beta                        76.1177
_cell_angle_gamma                       103.882
_symmetry_space_group_name_H-M          'P 1'
_symmetry_int_tables_number             1
loop_
  _symmetry_equiv_pos_as_xyz
         'x, y, z' 
loop_
  _atom_site_label
  _atom_site_occupancy
  _atom_site_fract_x
  _atom_site_fract_y
  _atom_site_fract_z
  _atom_site_thermal_displace_type
  _atom_site_B_iso_or_equiv
  _atom_site_type_symbol
  _atom_site_charge
         C1        1.0000    0.17445   0.63312   0.58657   Biso      1.000     C          0.093477  
         C2        1.0000    0.82555   0.58657   0.63312   Biso      1.000     C          0.093458  
         C3        1.0000    0.87384   0.68349   0.58607   Biso      1.000     C          -0.21016  
         C4        1.0000    0.02608   0.88898   0.50404   Biso      1.000     C          -0.148867           
         C5        1.0000    0.07987   0.98555   0.45664   Biso      1.000     C          -0.1026   
         C6        1.0000    0.29945   0.44052   0.18267   Biso      1.000     C          0.620008  
         C7        1.0000    0.47124   0.62310   0.92998   Biso      1.000     C          -0.154758           
         C8        1.0000    0.42999   0.57868   0.02521   Biso      1.000     C          -0.089915           
         C9        1.0000    0.33510   0.49229   0.08009   Biso      1.000     C          -0.01936  
         C10       1.0000    0.28056   0.45061   0.03583   Biso      1.000     C          -0.083181           
         C11       1.0000    0.32218   0.49485   0.94021   Biso      1.000     C          -0.149099           
         C12       1.0000    0.41622   0.58177   0.88391   Biso      1.000     C          0.080252  
         C13       1.0000    0.45867   0.63312   0.78031   Biso      1.000     C          0.095567  
         C14       1.0000    0.45991   0.58607   0.73044   Biso      1.000     C          -0.211648           
         C15       1.0000    0.83445   0.53432   0.58177   Biso      1.000     C          0.080886  
         C16       1.0000    0.53012   0.50404   0.60698   Biso      1.000     C          -0.149098           
         C17       1.0000    0.14107   0.44052   0.37681   Biso      1.000     C          0.617424  
         C18       1.0000    0.15186   0.62310   0.44692   Biso      1.000     C          -0.155515           
         C19       1.0000    0.14869   0.57868   0.39611   Biso      1.000     C          -0.088329           
         C20       1.0000    0.15719   0.49229   0.42762   Biso      1.000     C          -0.02288  
         C21       1.0000    0.17005   0.45061   0.51356   Biso      1.000     C          -0.082578           
         C22       1.0000    0.17267   0.49485   0.56494   Biso      1.000     C          -0.148441           
         C23       1.0000    0.16555   0.58177   0.53432   Biso      1.000     C          0.080882  
         C24       1.0000    0.12616   0.58607   0.68349   Biso      1.000     C          -0.21013  
         C25       1.0000    0.97392   0.50404   0.88898   Biso      1.000     C          -0.148892           
         C26       1.0000    0.92013   0.45664   0.98555   Biso      1.000     C          -0.102728           
         C27       1.0000    0.70055   0.18267   0.44052   Biso      1.000     C          0.620012  
         C28       1.0000    0.52876   0.92998   0.62310   Biso      1.000     C          -0.154749           
         C29       1.0000    0.66490   0.08009   0.49229   Biso      1.000     C          -0.019382           
         C30       1.0000    0.53651   0.45664   0.55781   Biso      1.000     C          -0.101439           
         C31       1.0000    0.82733   0.56494   0.49485   Biso      1.000     C          -0.148461           
         C32       1.0000    0.82995   0.51356   0.45061   Biso      1.000     C          -0.08255  
         C33       1.0000    0.84281   0.42762   0.49229   Biso      1.000     C          -0.022876           
         C34       1.0000    0.23087   0.73087   0.53826   Biso      1.000     C          -0.220577           
         C35       1.0000    0.13297   0.63297   0.73406   Biso      1.000     C          0.096987  
         C36       1.0000    0.07962   0.57962   0.84076   Biso      1.000     C          0.082314  
         C37       1.0000    0.98329   0.48329   0.03342   Biso      1.000     C          -0.035382           
         C38       1.0000    0.92986   0.42986   0.14028   Biso      1.000     C          0.646923  
         C39       1.0000    0.50000   0.73087   0.73087   Biso      1.000     C          -0.221417           
         C40       1.0000    0.50000   0.63297   0.63297   Biso      1.000     C          0.097984  
         C41       1.0000    0.50000   0.57962   0.57962   Biso      1.000     C          0.080362  
         C42       1.0000    0.50000   0.48329   0.48329   Biso      1.000     C          -0.037915           
         C43       1.0000    0.50000   0.42986   0.42986   Biso      1.000     C          0.644663  
         C44       1.0000    0.76913   0.53826   0.73087   Biso      1.000     C          -0.220518           
         C45       1.0000    0.86703   0.73406   0.63297   Biso      1.000     C          0.096998  
         C46       1.0000    0.92038   0.84076   0.57962   Biso      1.000     C          0.082418  
         C47       1.0000    0.01671   0.03342   0.48329   Biso      1.000     C          -0.035211           
         C48       1.0000    0.07014   0.14028   0.42986   Biso      1.000     C          0.646999  
         C49       1.0000    0.48212   0.18267   0.37681   Biso      1.000     C          0.620057  
         C50       1.0000    0.40122   0.92998   0.44692   Biso      1.000     C          -0.15504  
         C51       1.0000    0.45520   0.02521   0.39611   Biso      1.000     C          -0.090099           
         C52       1.0000    0.41519   0.08009   0.42762   Biso      1.000     C          -0.018764           
         C53       1.0000    0.31639   0.03583   0.51356   Biso      1.000     C          -0.08336  
         C54       1.0000    0.26239   0.94021   0.56494   Biso      1.000     C          -0.147593           
         C55       1.0000    0.30013   0.88391   0.53432   Biso      1.000     C          0.07879   
         C56       1.0000    0.23898   0.78031   0.58657   Biso      1.000     C          0.095404  
         C57       1.0000    0.19035   0.73044   0.68349   Biso      1.000     C          -0.210169           
         C58       1.0000    0.13710   0.60698   0.88898   Biso      1.000     C          -0.150558           
         C59       1.0000    0.09432   0.55781   0.98555   Biso      1.000     C          -0.102348           
         C60       1.0000    0.85893   0.37681   0.44052   Biso      1.000     C          0.617435  
         C61       1.0000    0.84814   0.44692   0.62310   Biso      1.000     C          -0.155526           
         C62       1.0000    0.85131   0.39611   0.57868   Biso      1.000     C          -0.088326           
         C63       1.0000    0.71944   0.03583   0.45061   Biso      1.000     C          -0.083151           
         C64       1.0000    0.67782   0.94021   0.49485   Biso      1.000     C          -0.149122           
         C65       1.0000    0.57001   0.02521   0.57868   Biso      1.000     C          -0.089882           
         C66       1.0000    0.54133   0.78031   0.63312   Biso      1.000     C          0.095541  
         C67       1.0000    0.58378   0.88391   0.58177   Biso      1.000     C          0.080272  
         C68       1.0000    0.90568   0.98555   0.55781   Biso      1.000     C          -0.103624           
         C69       1.0000    0.86290   0.88898   0.60698   Biso      1.000     C          -0.150387           
         C70       1.0000    0.80965   0.68349   0.73044   Biso      1.000     C          -0.210169           
         C71       1.0000    0.76102   0.58657   0.78031   Biso      1.000     C          0.09538   
         C72       1.0000    0.73761   0.56494   0.94021   Biso      1.000     C          -0.147609           
         C73       1.0000    0.68361   0.51356   0.03583   Biso      1.000     C          -0.083338           
         C74       1.0000    0.58481   0.42762   0.08009   Biso      1.000     C          -0.018783           
         C75       1.0000    0.69987   0.53432   0.88391   Biso      1.000     C          0.078798  
         C76       1.0000    0.54480   0.39611   0.02521   Biso      1.000     C          -0.09009  
         C77       1.0000    0.59878   0.44692   0.92998   Biso      1.000     C          -0.155061           
         C78       1.0000    0.51788   0.37681   0.18267   Biso      1.000     C          0.620066  
         C79       1.0000    0.46349   0.55781   0.45664   Biso      1.000     C          -0.101448           
         C80       1.0000    0.46988   0.60698   0.50404   Biso      1.000     C          -0.149076           
         C81       1.0000    0.54009   0.73044   0.58607   Biso      1.000     C          -0.211555           
         H1        1.0000    0.53330   0.05370   0.60720   Biso      1.000     H          0.122474  
         H2        1.0000    0.14510   0.68110   0.42440   Biso      1.000     H          0.11419   
         H3        1.0000    0.17680   0.39260   0.53580   Biso      1.000     H          0.115992  
         H4        1.0000    0.17960   0.46540   0.62240   Biso      1.000     H          0.113967  
         H5        1.0000    0.08810   0.52110   0.71590   Biso      1.000     H          0.117941  
         H6        1.0000    0.93580   0.48310   0.85610   Biso      1.000     H          0.106887  
         H7        1.0000    0.84360   0.40820   0.01730   Biso      1.000     H          0.123925  
         H8        1.0000    0.46400   0.89450   0.68110   Biso      1.000     H          0.113527  
         H9        1.0000    0.14050   0.60720   0.33910   Biso      1.000     H          0.122076  
         H10       1.0000    0.78420   0.07160   0.39260   Biso      1.000     H          0.115706  
         H11       1.0000    0.71260   0.53580   0.07160   Biso      1.000     H          0.115242  
         H12       1.0000    0.56700   0.76300   0.52110   Biso      1.000     H          0.117974  
         H13       1.0000    0.45270   0.66080   0.48310   Biso      1.000     H          0.10674   
         H14       1.0000    0.43540   0.57450   0.40820   Biso      1.000     H          0.12431   
         H15       1.0000    0.56950   0.42440   0.89450   Biso      1.000     H          0.11409   
         H16       1.0000    0.47960   0.33910   0.05370   Biso      1.000     H          0.121879  
         H17       1.0000    0.56460   0.40820   0.57450   Biso      1.000     H          0.124316  
         H18       1.0000    0.80200   0.62240   0.91220   Biso      1.000     H          0.114415  
         H19       1.0000    0.80400   0.71590   0.76300   Biso      1.000     H          0.117451  
         H20       1.0000    0.79190   0.85610   0.66080   Biso      1.000     H          0.10663   
         H21       1.0000    0.86090   0.01730   0.57450   Biso      1.000     H          0.124005  
         H22       1.0000    0.71420   0.91220   0.46540   Biso      1.000     H          0.114397  
         H23       1.0000    0.54730   0.48310   0.66080   Biso      1.000     H          0.106742  
         H24       1.0000    0.53600   0.68110   0.89450   Biso      1.000     H          0.113532  
         H25       1.0000    0.28580   0.46540   0.91220   Biso      1.000     H          0.114356  
         H26       1.0000    0.26345   0.76345   0.47310   Biso      1.000     H          0.11519   
         H27       1.0000    0.50000   0.76345   0.76345   Biso      1.000     H          0.114958  
         H28       1.0000    0.73655   0.47310   0.76345   Biso      1.000     H          0.115177  
         H29       1.0000    0.43050   0.89450   0.42440   Biso      1.000     H          0.114083  
         H30       1.0000    0.52040   0.05370   0.33910   Biso      1.000     H          0.121876  
         H31       1.0000    0.43300   0.52110   0.76300   Biso      1.000     H          0.118023  
         H32       1.0000    0.19800   0.91220   0.62240   Biso      1.000     H          0.114412  
         H33       1.0000    0.19600   0.76300   0.71590   Biso      1.000     H          0.117449  
         H34       1.0000    0.20810   0.66080   0.85610   Biso      1.000     H          0.106563  
         H35       1.0000    0.28740   0.07160   0.53580   Biso      1.000     H          0.115242  
         H36       1.0000    0.85490   0.42440   0.68110   Biso      1.000     H          0.114192  
         H37       1.0000    0.85950   0.33910   0.60720   Biso      1.000     H          0.122074  
         H38       1.0000    0.82320   0.53580   0.39260   Biso      1.000     H          0.11599   
         H39       1.0000    0.82040   0.62240   0.46540   Biso      1.000     H          0.113971  
         H40       1.0000    0.91190   0.71590   0.52110   Biso      1.000     H          0.117946  
         H41       1.0000    0.06420   0.85610   0.48310   Biso      1.000     H          0.106876  
         H42       1.0000    0.15640   0.01730   0.40820   Biso      1.000     H          0.123907  
         H43       1.0000    0.46670   0.60720   0.05370   Biso      1.000     H          0.122477  
         H44       1.0000    0.21580   0.39260   0.07160   Biso      1.000     H          0.115706  
         H45       1.0000    0.13910   0.57450   0.01730   Biso      1.000     H          0.123532  
         O1        1.0000    0.57204   0.38860   0.43070   Biso      1.000     O          -0.672545           
         O2        1.0000    0.20653   0.36201   0.23316   Biso      1.000     O          -0.781004           
         O3        1.0000    0.36469   0.46929   0.21942   Biso      1.000     O          -0.587598           
         O4        1.0000    0.84452   0.40483   0.36201   Biso      1.000     O          -0.778738           
         O5        1.0000    0.00274   0.43070   0.18070   Biso      1.000     O          -0.674076           
         O6        1.0000    0.89540   0.31129   0.46929   Biso      1.000     O          -0.585488           
         O7        1.0000    0.10460   0.46929   0.31129   Biso      1.000     O          -0.585488           
         O8        1.0000    0.18344   0.18070   0.38860   Biso      1.000     O          -0.673775           
         O9        1.0000    0.15548   0.36201   0.40483   Biso      1.000     O          -0.778724           
         O10       1.0000    0.58411   0.21942   0.31129   Biso      1.000     O          -0.586837           
         O11       1.0000    0.63531   0.21942   0.46929   Biso      1.000     O          -0.587597           
         O12       1.0000    0.79347   0.23316   0.36201   Biso      1.000     O          -0.780992           
         O13       1.0000    0.42796   0.43070   0.38860   Biso      1.000     O          -0.672546           
         O14       1.0000    0.41589   0.31129   0.21942   Biso      1.000     O          -0.586842           
         O15       1.0000    0.56031   0.40483   0.23316   Biso      1.000     O          -0.781301           
         O16       1.0000    0.99726   0.18070   0.43070   Biso      1.000     O          -0.674089           
         O17       1.0000    0.43969   0.23316   0.40483   Biso      1.000     O          -0.781301           
         O18       1.0000    0.81656   0.38860   0.18070   Biso      1.000     O          -0.67378  
         Tb1       1.0000    0.67751   0.35502   0.32249   Biso      1.000     Tb          2.097973  
         Tb2       1.0000    0.32249   0.32249   0.35502   Biso      1.000     Tb          2.098006  
         Tb3       1.0000    0.00000   0.32249   0.32249   Biso      1.000     Tb          2.098707 