
##########################################################################
#               Crystallographic Information Format file
#               Produced by PyCifRW module
#
#  This is a CIF file.  CIF has been adopted by the International
#  Union of Crystallography as the standard for data archiving and
#  transmission.
#
#  For information on this file format, follow the CIF links at
#  http://www.iucr.org
##########################################################################

data_image0

_cell_length_a                          13.0133
_cell_length_b                          13.0133
_cell_length_c                          13.922
_cell_angle_alpha                       106.373
_cell_angle_beta                        106.373
_cell_angle_gamma                       91.2734
_symmetry_space_group_name_H-M          'P 1'
_symmetry_int_tables_number             1
loop_
  _symmetry_equiv_pos_as_xyz
         'x, y, z' 
loop_
  _atom_site_label
  _atom_site_occupancy
  _atom_site_fract_x
  _atom_site_fract_y
  _atom_site_fract_z
  _atom_site_thermal_displace_type
  _atom_site_B_iso_or_equiv
  _atom_site_type_symbol
  _atom_site_charge
         C1        1.0000    0.83070   0.95450   0.21420   Biso      1.000     C          0.588665  
         C2        1.0000    0.80250   0.75890   0.10860   Biso      1.000     C          -0.120473           
         C3        1.0000    0.80200   0.65080   0.10230   Biso      1.000     C          -0.152471           
         C4        1.0000    0.82390   0.61730   0.19330   Biso      1.000     C          0.08242   
         C5        1.0000    0.89060   0.08420   0.63280   Biso      1.000     C          -0.185899           
         C6        1.0000    0.85300   0.16260   0.70140   Biso      1.000     C          0.130115  
         C7        1.0000    0.82530   0.25490   0.67550   Biso      1.000     C          -0.266913           
         C8        1.0000    0.82750   0.83690   0.20670   Biso      1.000     C          -0.025169           
         C9        1.0000    0.83610   0.26890   0.58330   Biso      1.000     C          0.358023  
         C10       1.0000    0.84800   0.80540   0.29550   Biso      1.000     C          -0.17293  
         C11       1.0000    0.63880   0.15020   0.22930   Biso      1.000     C          0.591987  
         C12       1.0000    0.19800   0.34920   0.89770   Biso      1.000     C          -0.152474           
         C13       1.0000    0.16930   0.04550   0.78580   Biso      1.000     C          0.588664  
         C14       1.0000    0.17250   0.16310   0.79330   Biso      1.000     C          -0.025169           
         C15       1.0000    0.19210   0.63070   0.44650   Biso      1.000     C          -0.548776           
         C16       1.0000    0.16390   0.73110   0.41670   Biso      1.000     C          0.358023  
         C17       1.0000    0.17470   0.74510   0.32450   Biso      1.000     C          -0.266917           
         C18       1.0000    0.14700   0.83740   0.29860   Biso      1.000     C          0.130119  
         C19       1.0000    0.10940   0.91580   0.36720   Biso      1.000     C          -0.1859   
         C20       1.0000    0.10180   0.89880   0.45700   Biso      1.000     C          0.113152  
         C21       1.0000    0.15200   0.19460   0.70450   Biso      1.000     C          -0.17293  
         C22       1.0000    0.19750   0.24110   0.89140   Biso      1.000     C          -0.12047  
         C23       1.0000    0.14950   0.30290   0.70750   Biso      1.000     C          0.084935  
         C24       1.0000    0.52210   0.14830   0.22220   Biso      1.000     C          -0.019443           
         C25       1.0000    0.33680   0.12040   0.11610   Biso      1.000     C          -0.145855           
         C26       1.0000    0.85050   0.69710   0.29250   Biso      1.000     C          0.084938  
         C27       1.0000    0.82530   0.50910   0.18900   Biso      1.000     C          -0.166122           
         C28       1.0000    0.87960   0.66320   0.38390   Biso      1.000     C          -0.145855           
         C29       1.0000    0.87990   0.55810   0.37640   Biso      1.000     C          -0.107788           
         C30       1.0000    0.85170   0.47790   0.27780   Biso      1.000     C          -0.019436           
         C31       1.0000    0.84980   0.36120   0.27070   Biso      1.000     C          0.591987  
         C32       1.0000    0.38270   0.17610   0.30670   Biso      1.000     C          0.082419  
         C33       1.0000    0.34920   0.19800   0.39770   Biso      1.000     C          -0.152474           
         C34       1.0000    0.24110   0.19750   0.39140   Biso      1.000     C          -0.120471           
         C35       1.0000    0.44190   0.12010   0.12360   Biso      1.000     C          -0.107787           
         C36       1.0000    0.04550   0.16930   0.28580   Biso      1.000     C          0.588664  
         C37       1.0000    0.63070   0.19210   0.94650   Biso      1.000     C          -0.548776           
         C38       1.0000    0.73110   0.16390   0.91670   Biso      1.000     C          0.358023  
         C39       1.0000    0.74510   0.17470   0.82450   Biso      1.000     C          -0.266917           
         C40       1.0000    0.83740   0.14700   0.79860   Biso      1.000     C          0.130119  
         C41       1.0000    0.91580   0.10940   0.86720   Biso      1.000     C          -0.1859   
         C42       1.0000    0.89880   0.10180   0.95700   Biso      1.000     C          0.113152  
         C43       1.0000    0.19460   0.15200   0.20450   Biso      1.000     C          -0.172937           
         C44       1.0000    0.30290   0.14950   0.20750   Biso      1.000     C          0.084939  
         C45       1.0000    0.49090   0.17470   0.31100   Biso      1.000     C          -0.166113           
         C46       1.0000    0.16310   0.17250   0.29330   Biso      1.000     C          -0.025161           
         C47       1.0000    0.17470   0.49090   0.81100   Biso      1.000     C          -0.166122           
         C48       1.0000    0.17610   0.38270   0.80670   Biso      1.000     C          0.08242   
         C49       1.0000    0.12010   0.44190   0.62360   Biso      1.000     C          -0.107816           
         C50       1.0000    0.80790   0.36930   0.55350   Biso      1.000     C          -0.548776           
         C51       1.0000    0.12040   0.33680   0.61610   Biso      1.000     C          -0.145827           
         C52       1.0000    0.36120   0.84980   0.77070   Biso      1.000     C          0.591987  
         C53       1.0000    0.47790   0.85170   0.77780   Biso      1.000     C          -0.019441           
         C54       1.0000    0.55810   0.87990   0.87640   Biso      1.000     C          -0.107815           
         C55       1.0000    0.66320   0.87960   0.88390   Biso      1.000     C          -0.145827           
         C56       1.0000    0.50910   0.82530   0.68900   Biso      1.000     C          -0.166114           
         C57       1.0000    0.69710   0.85050   0.79250   Biso      1.000     C          0.084936  
         C58       1.0000    0.80540   0.84800   0.79550   Biso      1.000     C          -0.172938           
         C59       1.0000    0.10120   0.89820   0.04300   Biso      1.000     C          0.113136  
         C60       1.0000    0.08420   0.89060   0.13280   Biso      1.000     C          -0.185884           
         C61       1.0000    0.89820   0.10120   0.54300   Biso      1.000     C          0.113152  
         C62       1.0000    0.25490   0.82530   0.17550   Biso      1.000     C          -0.266916           
         C63       1.0000    0.15020   0.63880   0.72930   Biso      1.000     C          0.591987  
         C64       1.0000    0.61730   0.82390   0.69330   Biso      1.000     C          0.082419  
         C65       1.0000    0.16260   0.85300   0.20140   Biso      1.000     C          0.130117  
         C66       1.0000    0.75890   0.80250   0.60860   Biso      1.000     C          -0.120474           
         C67       1.0000    0.95450   0.83070   0.71420   Biso      1.000     C          0.588664  
         C68       1.0000    0.65080   0.80200   0.60230   Biso      1.000     C          -0.15247  
         C69       1.0000    0.36930   0.80790   0.05350   Biso      1.000     C          -0.548776           
         C70       1.0000    0.26890   0.83610   0.08330   Biso      1.000     C          0.358023  
         C71       1.0000    0.14830   0.52210   0.72220   Biso      1.000     C          -0.019433           
         C72       1.0000    0.83690   0.82750   0.70670   Biso      1.000     C          -0.025161           
         H1        1.0000    0.22050   0.58330   0.39400   Biso      1.000     H          0.169563  
         H2        1.0000    0.10080   0.28460   0.54880   Biso      1.000     H          0.115874  
         H3        1.0000    0.24670   0.65010   0.51540   Biso      1.000     H          0.188136  
         H4        1.0000    0.12730   0.59330   0.44950   Biso      1.000     H          0.184007  
         H5        1.0000    0.20130   0.69070   0.27920   Biso      1.000     H          0.137643  
         H6        1.0000    0.08940   0.98040   0.35160   Biso      1.000     H          0.132119  
         H7        1.0000    0.07600   0.95300   0.50330   Biso      1.000     H          0.094453  
         H8        1.0000    0.13910   0.14110   0.63850   Biso      1.000     H          0.117141  
         H9        1.0000    0.19230   0.54430   0.87750   Biso      1.000     H          0.121533  
         H10       1.0000    0.10070   0.46290   0.56130   Biso      1.000     H          0.117545  
         H11       1.0000    0.41670   0.77950   0.10600   Biso      1.000     H          0.169563  
         H12       1.0000    0.78000   0.78580   0.54640   Biso      1.000     H          0.11708   
         H13       1.0000    0.34990   0.75330   0.98460   Biso      1.000     H          0.188136  
         H14       1.0000    0.21420   0.22000   0.95360   Biso      1.000     H          0.11708   
         H15       1.0000    0.40670   0.87270   0.05050   Biso      1.000     H          0.184007  
         H16       1.0000    0.30930   0.79870   0.22080   Biso      1.000     H          0.137642  
         H17       1.0000    0.01960   0.91060   0.14840   Biso      1.000     H          0.132118  
         H18       1.0000    0.04700   0.92400   0.99670   Biso      1.000     H          0.094454  
         H19       1.0000    0.85890   0.86090   0.86150   Biso      1.000     H          0.117142  
         H20       1.0000    0.45570   0.80770   0.62250   Biso      1.000     H          0.121532  
         H21       1.0000    0.71540   0.89920   0.95120   Biso      1.000     H          0.115874  
         H22       1.0000    0.53710   0.89930   0.93870   Biso      1.000     H          0.117545  
         H23       1.0000    0.59830   0.78650   0.53550   Biso      1.000     H          0.115725  
         H24       1.0000    0.78650   0.59830   0.03550   Biso      1.000     H          0.115725  
         H25       1.0000    0.79870   0.30930   0.72080   Biso      1.000     H          0.137643  
         H26       1.0000    0.75330   0.34990   0.48460   Biso      1.000     H          0.188135  
         H27       1.0000    0.21350   0.40170   0.96450   Biso      1.000     H          0.115725  
         H28       1.0000    0.46290   0.10070   0.06130   Biso      1.000     H          0.117543  
         H29       1.0000    0.28460   0.10080   0.04880   Biso      1.000     H          0.115876  
         H30       1.0000    0.54430   0.19230   0.37750   Biso      1.000     H          0.121532  
         H31       1.0000    0.14110   0.13910   0.13850   Biso      1.000     H          0.117142  
         H32       1.0000    0.95300   0.07600   0.00330   Biso      1.000     H          0.094453  
         H33       1.0000    0.98040   0.08940   0.85160   Biso      1.000     H          0.132119  
         H34       1.0000    0.78580   0.78000   0.04640   Biso      1.000     H          0.11708   
         H35       1.0000    0.59330   0.12730   0.94950   Biso      1.000     H          0.184007  
         H36       1.0000    0.58330   0.22050   0.89400   Biso      1.000     H          0.169563  
         H37       1.0000    0.69070   0.20130   0.77920   Biso      1.000     H          0.137642  
         H38       1.0000    0.22000   0.21420   0.45360   Biso      1.000     H          0.11708   
         H39       1.0000    0.89930   0.53710   0.43870   Biso      1.000     H          0.117543  
         H40       1.0000    0.89920   0.71540   0.45120   Biso      1.000     H          0.115876  
         H41       1.0000    0.80770   0.45570   0.12250   Biso      1.000     H          0.121533  
         H42       1.0000    0.86090   0.85890   0.36150   Biso      1.000     H          0.117142  
         H43       1.0000    0.92400   0.04700   0.49670   Biso      1.000     H          0.094453  
         H44       1.0000    0.91060   0.01960   0.64840   Biso      1.000     H          0.132119  
         H45       1.0000    0.87270   0.40670   0.55050   Biso      1.000     H          0.184007  
         H46       1.0000    0.77950   0.41670   0.60600   Biso      1.000     H          0.169563  
         H47       1.0000    0.65010   0.24670   0.01540   Biso      1.000     H          0.188136  
         H48       1.0000    0.40170   0.21350   0.46450   Biso      1.000     H          0.115725  
         N1        1.0000    0.80890   0.12910   0.98410   Biso      1.000     N          -0.279692           
         N2        1.0000    0.87090   0.19110   0.51590   Biso      1.000     N          -0.279693           
         N3        1.0000    0.12910   0.80890   0.48410   Biso      1.000     N          -0.279692           
         N4        1.0000    0.19110   0.87090   0.01590   Biso      1.000     N          -0.27969  
         O1        1.0000    0.16440   0.97880   0.69880   Biso      1.000     O          -0.570594           
         O2        1.0000    0.70520   0.19200   0.31890   Biso      1.000     O          -0.561728           
         O3        1.0000    0.02232   0.16968   0.36810   Biso      1.000     O          -0.551069           
         O4        1.0000    0.88889   0.33651   0.35460   Biso      1.000     O          -0.549207           
         O5        1.0000    0.80800   0.29480   0.18110   Biso      1.000     O          -0.561728           
         O6        1.0000    0.66349   0.11111   0.14540   Biso      1.000     O          -0.549206           
         O7        1.0000    0.97880   0.16440   0.19880   Biso      1.000     O          -0.570594           
         O8        1.0000    0.83560   0.02120   0.30120   Biso      1.000     O          -0.570594           
         O9        1.0000    0.83032   0.97768   0.13190   Biso      1.000     O          -0.551069           
         O10       1.0000    0.16968   0.02232   0.86810   Biso      1.000     O          -0.551068           
         O11       1.0000    0.19200   0.70520   0.81890   Biso      1.000     O          -0.561728           
         O12       1.0000    0.11111   0.66349   0.64540   Biso      1.000     O          -0.549206           
         O13       1.0000    0.02120   0.83560   0.80120   Biso      1.000     O          -0.570594           
         O14       1.0000    0.97768   0.83032   0.63190   Biso      1.000     O          -0.551069           
         O15       1.0000    0.29480   0.80800   0.68110   Biso      1.000     O          -0.561729           
         O16       1.0000    0.33651   0.88889   0.85460   Biso      1.000     O          -0.549206           
         Zn1       1.0000    0.81250   0.13322   0.13338   Biso      1.000     Zn          0.864002  
         Zn2       1.0000    0.13322   0.81250   0.63338   Biso      1.000     Zn          0.864003  
         Zn3       1.0000    0.86678   0.18750   0.36662   Biso      1.000     Zn          0.864003  
         Zn4       1.0000    0.18750   0.86678   0.86662   Biso      1.000     Zn          0.864002 