
##########################################################################
#               Crystallographic Information Format file
#               Produced by PyCifRW module
#
#  This is a CIF file.  CIF has been adopted by the International
#  Union of Crystallography as the standard for data archiving and
#  transmission.
#
#  For information on this file format, follow the CIF links at
#  http://www.iucr.org
##########################################################################

data_image0

_cell_length_a                          7.2904
_cell_length_b                          9.2414
_cell_length_c                          14.014
_cell_angle_alpha                       83.886
_cell_angle_beta                        85.398
_cell_angle_gamma                       72.647
_symmetry_space_group_name_H-M          'P 1'
_symmetry_int_tables_number             1
loop_
  _symmetry_equiv_pos_as_xyz
         'x, y, z' 
loop_
  _atom_site_label
  _atom_site_occupancy
  _atom_site_fract_x
  _atom_site_fract_y
  _atom_site_fract_z
  _atom_site_thermal_displace_type
  _atom_site_B_iso_or_equiv
  _atom_site_type_symbol
  _atom_site_charge
         C1        1.0000    0.93150   0.53700   0.32710   Biso      1.000     C          -0.22802600000000003          
         C2        1.0000    0.34370   0.02350   0.80780   Biso      1.000     C          0.582231  
         C3        1.0000    0.55560   0.31960   0.88150   Biso      1.000     C          0.597195  
         C4        1.0000    0.60680   0.33070   0.77680   Biso      1.000     C          0.030872000000000004          
         C5        1.0000    0.54900   0.43810   0.70090   Biso      1.000     C          -0.017464           
         C6        1.0000    0.73660   0.23660   0.64170   Biso      1.000     C          0.197856  
         C7        1.0000    0.41620   0.59630   0.69040   Biso      1.000     C          0.622835  
         C8        1.0000    0.13170   0.45920   0.17780   Biso      1.000     C          0.570124  
         C9        1.0000    0.97770   0.57220   0.23120   Biso      1.000     C          0.025214  
         C10       1.0000    0.11110   0.28520   0.81270   Biso      1.000     C          -0.145327           
         C11       1.0000    0.79610   0.64240   0.37910   Biso      1.000     C          0.267437  
         C12       1.0000    0.75370   0.82200   0.23970   Biso      1.000     C          0.009472  
         C13       1.0000    0.88890   0.71480   0.18730   Biso      1.000     C          -0.145325           
         C14       1.0000    0.65630   0.97650   0.19220   Biso      1.000     C          0.582231  
         C15       1.0000    0.44440   0.68040   0.11850   Biso      1.000     C          0.597195  
         C16       1.0000    0.39320   0.66930   0.22320   Biso      1.000     C          0.030872000000000004          
         C17       1.0000    0.45100   0.56190   0.29910   Biso      1.000     C          -0.017464           
         C18       1.0000    0.26340   0.76340   0.35830   Biso      1.000     C          0.197856  
         C19       1.0000    0.58380   0.40370   0.30960   Biso      1.000     C          0.622835  
         C20       1.0000    0.70990   0.78520   0.33590   Biso      1.000     C          -0.229294           
         C21       1.0000    0.29010   0.21480   0.66410   Biso      1.000     C          -0.22929899999999998          
         C22       1.0000    0.24630   0.17800   0.76030   Biso      1.000     C          0.009474  
         C23       1.0000    0.06850   0.46300   0.67290   Biso      1.000     C          -0.228027           
         C24       1.0000    0.02230   0.42780   0.76880   Biso      1.000     C          0.025215  
         C25       1.0000    0.86830   0.54080   0.82220   Biso      1.000     C          0.570124  
         C26       1.0000    0.20390   0.35760   0.62090   Biso      1.000     C          0.267439  
         H1        1.0000    0.72830   0.67480   0.51350   Biso      1.000     H          0.341197  
         H2        1.0000    0.16360   0.47260   0.50220   Biso      1.000     H          0.307001  
         H3        1.0000    0.78280   0.11630   0.76240   Biso      1.000     H          0.334414  
         H4        1.0000    0.00790   0.55840   0.64320   Biso      1.000     H          0.133509  
         H5        1.0000    0.37790   0.14270   0.62870   Biso      1.000     H          0.13863   
         H6        1.0000    0.08070   0.26090   0.87690   Biso      1.000     H          0.13979   
         H7        1.0000    0.80930   0.16930   0.59850   Biso      1.000     H          0.10547899999999999           
         H8        1.0000    0.83640   0.52740   0.49780   Biso      1.000     H          0.307001  
         H9        1.0000    0.27170   0.32520   0.48650   Biso      1.000     H          0.341197  
         H10       1.0000    0.21720   0.88370   0.23760   Biso      1.000     H          0.334414  
         H11       1.0000    0.99210   0.44160   0.35680   Biso      1.000     H          0.133509  
         H12       1.0000    0.62210   0.85730   0.37130   Biso      1.000     H          0.138629  
         H13       1.0000    0.91930   0.73910   0.12310   Biso      1.000     H          0.13979   
         H14       1.0000    0.19070   0.83070   0.40150   Biso      1.000     H          0.10547999999999999           
         N1        1.0000    0.26430   0.39870   0.52410   Biso      1.000     N          -0.648938           
         N2        1.0000    0.36840   0.62430   0.38270   Biso      1.000     N          -0.321308           
         N3        1.0000    0.72540   0.20410   0.73680   Biso      1.000     N          -0.240454           
         N4        1.0000    0.73570   0.60130   0.47590   Biso      1.000     N          -0.648937           
         N5        1.0000    0.27460   0.79590   0.26320   Biso      1.000     N          -0.240454           
         N6        1.0000    0.63160   0.37570   0.61730   Biso      1.000     N          -0.321308           
         Nd1       1.0000    0.49527   0.71310   0.90451   Biso      1.000     Nd          2.098811  
         Nd2       1.0000    0.50473   0.28690   0.09549   Biso      1.000     Nd          2.098811  
         Ni1       1.0000    0.50000   0.50000   0.50000   Biso      1.000     Ni          0.695626  
         O1        1.0000    0.40490   0.80950   0.07510   Biso      1.000     O          -0.590983           
         O2        1.0000    0.52460   0.56130   0.07760   Biso      1.000     O          -0.712213           
         O3        1.0000    0.71910   0.01670   0.11010   Biso      1.000     O          -0.6701229999999999           
         O4        1.0000    0.51520   0.06310   0.23370   Biso      1.000     O          -0.617428           
         O5        1.0000    0.16620   0.48400   0.09000   Biso      1.000     O          -0.6287050000000001           
         O6        1.0000    0.23180   0.34170   0.22440   Biso      1.000     O          -0.639509           
         O7        1.0000    0.37410   0.64590   0.60500   Biso      1.000     O          -0.524225           
         O8        1.0000    0.35250   0.66870   0.76220   Biso      1.000     O          -0.635883           
         O9        1.0000    0.59510   0.19050   0.92490   Biso      1.000     O          -0.590983           
         O10       1.0000    0.47540   0.43870   0.92240   Biso      1.000     O          -0.712213           
         O11       1.0000    0.28090   0.98330   0.88990   Biso      1.000     O          -0.6701229999999999           
         O12       1.0000    0.48480   0.93690   0.76630   Biso      1.000     O          -0.617428           
         O13       1.0000    0.83380   0.51600   0.91000   Biso      1.000     O          -0.628704           
         O14       1.0000    0.76820   0.65830   0.77560   Biso      1.000     O          -0.639509           
         O15       1.0000    0.64750   0.33130   0.23780   Biso      1.000     O          -0.635883           
         O16       1.0000    0.62590   0.35410   0.39500   Biso      1.000     O          -0.524225 