
##########################################################################
#               Crystallographic Information Format file
#               Produced by PyCifRW module
#
#  This is a CIF file.  CIF has been adopted by the International
#  Union of Crystallography as the standard for data archiving and
#  transmission.
#
#  For information on this file format, follow the CIF links at
#  http://www.iucr.org
##########################################################################

data_image0

_cell_length_a                          10.524
_cell_length_b                          11.307
_cell_length_c                          14.316
_cell_angle_alpha                       111.186
_cell_angle_beta                        107.831
_cell_angle_gamma                       91.583
_symmetry_space_group_name_H-M          'P 1'
_symmetry_int_tables_number             1
loop_
  _symmetry_equiv_pos_as_xyz
         'x, y, z' 
loop_
  _atom_site_label
  _atom_site_occupancy
  _atom_site_fract_x
  _atom_site_fract_y
  _atom_site_fract_z
  _atom_site_thermal_displace_type
  _atom_site_B_iso_or_equiv
  _atom_site_type_symbol
  _atom_site_charge
         C1        1.0000    0.27640   0.72990   0.08230   Biso      1.000     C          0.57434   
         C2        1.0000    0.38370   0.90410   0.26120   Biso      1.000     C          -0.235958           
         C3        1.0000    0.26620   0.83280   0.18100   Biso      1.000     C          0.013175  
         C4        1.0000    0.13980   0.85610   0.19070   Biso      1.000     C          -0.162198           
         C5        1.0000    0.13830   0.95420   0.28120   Biso      1.000     C          -0.075695           
         C6        1.0000    0.25460   0.02990   0.36170   Biso      1.000     C          -0.16388699999999998          
         C7        1.0000    0.24240   0.14070   0.45150   Biso      1.000     C          0.590684  
         C8        1.0000    0.21010   0.95800   0.66430   Biso      1.000     C          0.33168800000000004           
         C9        1.0000    0.21210   0.83650   0.66790   Biso      1.000     C          -0.257563           
         C10       1.0000    0.52750   0.48050   0.82970   Biso      1.000     C          0.6821510000000001  
         C11       1.0000    0.38000   0.00340   0.35070   Biso      1.000     C          0.328373  
         C12       1.0000    0.64960   0.46470   0.79750   Biso      1.000     C          -0.163306           
         C13       1.0000    0.74460   0.36670   0.65960   Biso      1.000     C          -0.139951           
         C14       1.0000    0.87320   0.42210   0.73290   Biso      1.000     C          0.007455  
         C15       1.0000    0.99640   0.40390   0.70060   Biso      1.000     C          0.649624  
         C16       1.0000    0.88990   0.49520   0.83730   Biso      1.000     C          -0.22291799999999998          
         C17       1.0000    0.78030   0.51980   0.87220   Biso      1.000     C          0.347918  
         C18       1.0000    0.25880   0.20030   0.76580   Biso      1.000     C          0.6744180000000001  
         C19       1.0000    0.26420   0.06650   0.76140   Biso      1.000     C          -0.175954           
         C20       1.0000    0.32690   0.04720   0.85400   Biso      1.000     C          -0.075036           
         C21       1.0000    0.33180   0.92500   0.85560   Biso      1.000     C          -0.155112           
         C22       1.0000    0.63570   0.38960   0.69290   Biso      1.000     C          -0.07862999999999999          
         C23       1.0000    0.47250   0.51950   0.17030   Biso      1.000     C          0.6821510000000001  
         C24       1.0000    0.35040   0.53530   0.20250   Biso      1.000     C          -0.163305           
         C25       1.0000    0.36430   0.61040   0.30710   Biso      1.000     C          -0.078635           
         C26       1.0000    0.62000   0.99660   0.64930   Biso      1.000     C          0.328365  
         C27       1.0000    0.61630   0.09590   0.73880   Biso      1.000     C          -0.235952           
         C28       1.0000    0.72360   0.27010   0.91770   Biso      1.000     C          0.57434   
         C29       1.0000    0.73380   0.16720   0.81900   Biso      1.000     C          0.013175  
         C30       1.0000    0.86020   0.14390   0.80930   Biso      1.000     C          -0.162197           
         C31       1.0000    0.86170   0.04580   0.71880   Biso      1.000     C          -0.075695           
         C32       1.0000    0.74540   0.97010   0.63830   Biso      1.000     C          -0.163884           
         C33       1.0000    0.75760   0.85930   0.54850   Biso      1.000     C          0.590684  
         C34       1.0000    0.78990   0.04200   0.33570   Biso      1.000     C          0.33168800000000004           
         C35       1.0000    0.78790   0.16350   0.33210   Biso      1.000     C          -0.257563           
         C36       1.0000    0.73870   0.31540   0.23930   Biso      1.000     C          0.674852  
         C37       1.0000    0.73220   0.18080   0.23810   Biso      1.000     C          -0.001825           
         C38       1.0000    0.66820   0.07500   0.14440   Biso      1.000     C          -0.155112           
         C39       1.0000    0.67310   0.95280   0.14600   Biso      1.000     C          -0.075036           
         C40       1.0000    0.73580   0.93350   0.23860   Biso      1.000     C          -0.175953           
         C41       1.0000    0.74120   0.79970   0.23420   Biso      1.000     C          0.674417  
         C42       1.0000    0.21970   0.48020   0.12780   Biso      1.000     C          0.34791700000000003           
         C43       1.0000    0.11010   0.50480   0.16270   Biso      1.000     C          -0.222919           
         C44       1.0000    0.00360   0.59610   0.29940   Biso      1.000     C          0.649625  
         C45       1.0000    0.12680   0.57790   0.26710   Biso      1.000     C          0.007456  
         C46       1.0000    0.25540   0.63330   0.34040   Biso      1.000     C          -0.139945           
         C47       1.0000    0.26780   0.81920   0.76190   Biso      1.000     C          -0.0018239999999999999        
         C48       1.0000    0.26130   0.68460   0.76070   Biso      1.000     C          0.674852  
         Gd1       1.0000    0.30683   0.51726   0.91887   Biso      1.000     Gd          1.981882  
         Gd2       1.0000    0.69317   0.48274   0.08113   Biso      1.000     Gd          1.981882  
         Gd3       1.0000    0.21557   0.36764   0.60525   Biso      1.000     Gd          2.0263139999999997  
         Gd4       1.0000    0.78443   0.63236   0.39475   Biso      1.000     Gd          2.026313  
         H1        1.0000    0.37700   0.91450   0.91830   Biso      1.000     H          0.125729  
         H2        1.0000    0.36700   0.11830   0.91720   Biso      1.000     H          0.125097  
         H3        1.0000    0.97680   0.52910   0.88590   Biso      1.000     H          0.143205  
         H4        1.0000    0.73290   0.31510   0.58930   Biso      1.000     H          0.121995  
         H5        1.0000    0.54940   0.35360   0.64390   Biso      1.000     H          0.11183199999999999           
         H6        1.0000    0.50750   0.14220   0.48010   Biso      1.000     H          0.33878400000000003           
         H7        1.0000    0.57840   0.06220   0.41020   Biso      1.000     H          0.332771  
         H8        1.0000    0.15810   0.03570   0.55950   Biso      1.000     H          0.338403  
         H9        1.0000    0.13360   0.89280   0.50940   Biso      1.000     H          0.344115  
         H10       1.0000    0.73800   0.60760   0.00350   Biso      1.000     H          0.307971  
         H11       1.0000    0.88630   0.61920   0.02390   Biso      1.000     H          0.364103  
         H12       1.0000    0.53330   0.11520   0.74530   Biso      1.000     H          0.138783  
         H13       1.0000    0.17460   0.76470   0.60480   Biso      1.000     H          0.13129000000000002           
         H14       1.0000    0.05520   0.97080   0.28890   Biso      1.000     H          0.11473399999999999           
         H15       1.0000    0.93980   0.19300   0.86210   Biso      1.000     H          0.11937   
         H16       1.0000    0.46670   0.88480   0.25470   Biso      1.000     H          0.138784  
         H17       1.0000    0.94480   0.02920   0.71110   Biso      1.000     H          0.11473399999999999           
         H18       1.0000    0.82540   0.23530   0.39520   Biso      1.000     H          0.13129000000000002           
         H19       1.0000    0.62300   0.08550   0.08170   Biso      1.000     H          0.125728  
         H20       1.0000    0.63300   0.88170   0.08280   Biso      1.000     H          0.125097  
         H21       1.0000    0.02320   0.47090   0.11410   Biso      1.000     H          0.143205  
         H22       1.0000    0.06020   0.80700   0.13790   Biso      1.000     H          0.11937   
         H23       1.0000    0.26710   0.68490   0.41070   Biso      1.000     H          0.121994  
         H24       1.0000    0.49250   0.85780   0.51990   Biso      1.000     H          0.33878400000000003           
         H25       1.0000    0.42160   0.93780   0.58980   Biso      1.000     H          0.33277199999999996           
         H26       1.0000    0.84190   0.96430   0.44050   Biso      1.000     H          0.338403  
         H27       1.0000    0.86640   0.10720   0.49060   Biso      1.000     H          0.344115  
         H28       1.0000    0.26200   0.39240   0.99650   Biso      1.000     H          0.307971  
         H29       1.0000    0.11370   0.38080   0.97610   Biso      1.000     H          0.364104  
         H30       1.0000    0.45060   0.64640   0.35610   Biso      1.000     H          0.11183199999999999           
         N1        1.0000    0.83880   0.03720   0.43450   Biso      1.000     N          -0.687423           
         N2        1.0000    0.49510   0.92090   0.57690   Biso      1.000     N          -0.710142           
         N3        1.0000    0.19530   0.40860   0.01950   Biso      1.000     N          -0.755162           
         N4        1.0000    0.80470   0.59140   0.98050   Biso      1.000     N          -0.755162           
         N5        1.0000    0.16120   0.96280   0.56550   Biso      1.000     N          -0.687423           
         N6        1.0000    0.50490   0.07910   0.42310   Biso      1.000     N          -0.710142           
         O1        1.0000    0.45820   0.46780   0.07170   Biso      1.000     O          -0.677782           
         O2        1.0000    0.87320   0.83340   0.54770   Biso      1.000     O          -0.649547           
         O3        1.0000    0.65360   0.78990   0.47440   Biso      1.000     O          -0.652593           
         O4        1.0000    0.79400   0.40800   0.32830   Biso      1.000     O          -0.722453           
         O5        1.0000    0.69170   0.32510   0.15210   Biso      1.000     O          -0.628867           
         O6        1.0000    0.78190   0.78500   0.32090   Biso      1.000     O          -0.662832           
         O7        1.0000    0.70530   0.70930   0.14350   Biso      1.000     O          -0.652813           
         O8        1.0000    0.01710   0.64560   0.39650   Biso      1.000     O          -0.6235569999999999           
         O9        1.0000    0.88880   0.55690   0.22910   Biso      1.000     O          -0.729201           
         O10       1.0000    0.58890   0.55610   0.23890   Biso      1.000     O          -0.71912  
         O11       1.0000    0.16940   0.66340   0.00670   Biso      1.000     O          -0.6491020000000001           
         O12       1.0000    0.41110   0.44390   0.76110   Biso      1.000     O          -0.71912  
         O13       1.0000    0.34640   0.21010   0.52560   Biso      1.000     O          -0.652593           
         O14       1.0000    0.12680   0.16660   0.45230   Biso      1.000     O          -0.649547           
         O15       1.0000    0.20600   0.59200   0.67170   Biso      1.000     O          -0.722453           
         O16       1.0000    0.30830   0.67490   0.84790   Biso      1.000     O          -0.628867           
         O17       1.0000    0.21810   0.21500   0.67910   Biso      1.000     O          -0.662832           
         O18       1.0000    0.29470   0.29070   0.85650   Biso      1.000     O          -0.652813           
         O19       1.0000    0.98290   0.35440   0.60350   Biso      1.000     O          -0.6235569999999999           
         O20       1.0000    0.11120   0.44310   0.77090   Biso      1.000     O          -0.729201           
         O21       1.0000    0.54180   0.53220   0.92830   Biso      1.000     O          -0.677782           
         O22       1.0000    0.60960   0.29230   0.92200   Biso      1.000     O          -0.6124310000000001           
         O23       1.0000    0.39040   0.70770   0.07800   Biso      1.000     O          -0.6124310000000001           
         O24       1.0000    0.83060   0.33660   0.99330   Biso      1.000     O          -0.6491020000000001 