
##########################################################################
#               Crystallographic Information Format file
#               Produced by PyCifRW module
#
#  This is a CIF file.  CIF has been adopted by the International
#  Union of Crystallography as the standard for data archiving and
#  transmission.
#
#  For information on this file format, follow the CIF links at
#  http://www.iucr.org
##########################################################################

data_image0

_cell_length_a                          7.8681
_cell_length_b                          10.1311
_cell_length_c                          13.4927
_cell_angle_alpha                       68.376
_cell_angle_beta                        79.855
_cell_angle_gamma                       70.823
_symmetry_space_group_name_H-M          'P 1'
_symmetry_int_tables_number             1
loop_
  _symmetry_equiv_pos_as_xyz
         'x, y, z' 
loop_
  _atom_site_label
  _atom_site_occupancy
  _atom_site_fract_x
  _atom_site_fract_y
  _atom_site_fract_z
  _atom_site_thermal_displace_type
  _atom_site_B_iso_or_equiv
  _atom_site_type_symbol
  _atom_site_charge
         C1        1.0000    0.72340   0.52840   0.52560   Biso      1.000     C          0.088448  
         C2        1.0000    0.69330   0.48660   0.64440   Biso      1.000     C          0.076675  
         C3        1.0000    0.78690   0.59820   0.30430   Biso      1.000     C          -0.036351           
         C4        1.0000    0.87100   0.45780   0.37360   Biso      1.000     C          -0.09577999999999999          
         C5        1.0000    0.67260   0.58650   0.69730   Biso      1.000     C          -0.149289           
         C6        1.0000    0.64090   0.66800   0.45850   Biso      1.000     C          -0.14846099999999998          
         C7        1.0000    0.65610   0.39830   0.86900   Biso      1.000     C          -0.127468           
         C8        1.0000    0.65640   0.64980   0.86120   Biso      1.000     C          0.587479  
         C9        1.0000    0.65870   0.54220   0.80890   Biso      1.000     C          -0.011792           
         C10       1.0000    0.69040   0.34260   0.70600   Biso      1.000     C          -0.150763           
         C11       1.0000    0.67000   0.29890   0.81660   Biso      1.000     C          -0.010265           
         C12       1.0000    0.66310   0.14340   0.87680   Biso      1.000     C          0.583581  
         C13       1.0000    0.81600   0.63210   0.18560   Biso      1.000     C          0.617369  
         C14       1.0000    0.33690   0.85660   0.12320   Biso      1.000     C          0.583581  
         C15       1.0000    0.33000   0.70110   0.18340   Biso      1.000     C          -0.010265999999999999         
         C16       1.0000    0.30960   0.65740   0.29400   Biso      1.000     C          -0.150763           
         C17       1.0000    0.34130   0.45780   0.19110   Biso      1.000     C          -0.011792           
         C18       1.0000    0.34360   0.35020   0.13880   Biso      1.000     C          0.587479  
         C19       1.0000    0.34390   0.60170   0.13100   Biso      1.000     C          -0.127466           
         C20       1.0000    0.35910   0.33200   0.54150   Biso      1.000     C          -0.148465           
         C21       1.0000    0.32740   0.41350   0.30270   Biso      1.000     C          -0.149291           
         C22       1.0000    0.12900   0.54220   0.62640   Biso      1.000     C          -0.095779           
         C23       1.0000    0.21310   0.40180   0.69570   Biso      1.000     C          -0.036351           
         C24       1.0000    0.30670   0.51340   0.35560   Biso      1.000     C          0.076676  
         C25       1.0000    0.16010   0.57470   0.51750   Biso      1.000     C          -0.146118           
         C26       1.0000    0.27660   0.47160   0.47440   Biso      1.000     C          0.088453  
         C27       1.0000    0.32880   0.29740   0.65120   Biso      1.000     C          -0.089395           
         C28       1.0000    0.18400   0.36790   0.81440   Biso      1.000     C          0.617369  
         C29       1.0000    0.83990   0.42530   0.48250   Biso      1.000     C          -0.14611500000000002          
         C30       1.0000    0.67120   0.70260   0.34880   Biso      1.000     C          -0.089395           
         Cd1       1.0000    0.67278   0.84377   0.95656   Biso      1.000     Cd          0.9800979999999999  
         Cd2       1.0000    0.32722   0.15623   0.04344   Biso      1.000     Cd          0.9800979999999999  
         Cd3       1.0000    0.00000   0.50000   0.00000   Biso      1.000     Cd          1.016401  
         H1        1.0000    0.38640   0.20340   0.69580   Biso      1.000     H          0.125412  
         H2        1.0000    0.64520   0.36840   0.94320   Biso      1.000     H          0.124752  
         H3        1.0000    0.56480   0.73920   0.48690   Biso      1.000     H          0.12244400000000001           
         H4        1.0000    0.66790   0.68450   0.65760   Biso      1.000     H          0.123453  
         H5        1.0000    0.94810   0.38610   0.34600   Biso      1.000     H          0.118997  
         H6        1.0000    0.89870   0.33220   0.52770   Biso      1.000     H          0.120271  
         H7        1.0000    0.70230   0.27450   0.67230   Biso      1.000     H          0.12346199999999999           
         H8        1.0000    0.29770   0.72550   0.32770   Biso      1.000     H          0.12346199999999999           
         H9        1.0000    0.35480   0.63160   0.05680   Biso      1.000     H          0.124752  
         H10       1.0000    0.43520   0.26080   0.51310   Biso      1.000     H          0.122445  
         H11       1.0000    0.33210   0.31550   0.34240   Biso      1.000     H          0.123453  
         H12       1.0000    0.05190   0.61390   0.65400   Biso      1.000     H          0.118997  
         H13       1.0000    0.10130   0.66780   0.47230   Biso      1.000     H          0.120272  
         H14       1.0000    0.61360   0.79660   0.30420   Biso      1.000     H          0.12541300000000002           
         O1        1.0000    0.38690   0.21570   0.18760   Biso      1.000     O          -0.501152           
         O2        1.0000    0.29900   0.40170   0.04220   Biso      1.000     O          -0.612336           
         O3        1.0000    0.38000   0.89370   0.02220   Biso      1.000     O          -0.595942           
         O4        1.0000    0.29900   0.94690   0.17160   Biso      1.000     O          -0.5122439999999999           
         O5        1.0000    0.73700   0.75760   0.12710   Biso      1.000     O          -0.544585           
         O6        1.0000    0.70100   0.59830   0.95780   Biso      1.000     O          -0.612337           
         O7        1.0000    0.61310   0.78430   0.81240   Biso      1.000     O          -0.501152           
         O8        1.0000    0.62000   0.10630   0.97780   Biso      1.000     O          -0.595942           
         O9        1.0000    0.70100   0.05310   0.82840   Biso      1.000     O          -0.5122439999999999           
         O10       1.0000    0.07990   0.47240   0.84400   Biso      1.000     O          -0.568704           
         O11       1.0000    0.92010   0.52760   0.15600   Biso      1.000     O          -0.568704           
         O12       1.0000    0.26300   0.24240   0.87290   Biso      1.000     O          -0.544585 