
##########################################################################
#               Crystallographic Information Format file
#               Produced by PyCifRW module
#
#  This is a CIF file.  CIF has been adopted by the International
#  Union of Crystallography as the standard for data archiving and
#  transmission.
#
#  For information on this file format, follow the CIF links at
#  http://www.iucr.org
##########################################################################

data_image0

_cell_length_a                          7.8733
_cell_length_b                          10.1432
_cell_length_c                          13.528
_cell_angle_alpha                       68.355
_cell_angle_beta                        79.645
_cell_angle_gamma                       70.702
_symmetry_space_group_name_H-M          'P 1'
_symmetry_int_tables_number             1
loop_
  _symmetry_equiv_pos_as_xyz
         'x, y, z' 
loop_
  _atom_site_label
  _atom_site_occupancy
  _atom_site_fract_x
  _atom_site_fract_y
  _atom_site_fract_z
  _atom_site_thermal_displace_type
  _atom_site_B_iso_or_equiv
  _atom_site_type_symbol
  _atom_site_charge
         C1        1.0000    0.84320   0.84980   0.63850   Biso      1.000     C          0.5897    
         C2        1.0000    0.82900   0.79710   0.15180   Biso      1.000     C          -0.093932           
         C3        1.0000    0.71260   0.90150   0.19450   Biso      1.000     C          -0.027937           
         C4        1.0000    0.62810   0.04080   0.12840   Biso      1.000     C          -0.09958600000000001          
         C5        1.0000    0.66050   0.07340   0.01810   Biso      1.000     C          -0.148276           
         C6        1.0000    0.77630   0.97110   0.97420   Biso      1.000     C          0.085885  
         C7        1.0000    0.82620   0.91340   0.80230   Biso      1.000     C          -0.142043           
         C8        1.0000    0.80690   0.01230   0.85510   Biso      1.000     C          0.079109  
         C9        1.0000    0.80900   0.15580   0.79440   Biso      1.000     C          -0.14771900000000002          
         C10       1.0000    0.82790   0.20250   0.68260   Biso      1.000     C          -0.010143000000000001         
         C11       1.0000    0.84230   0.10210   0.63050   Biso      1.000     C          -0.123675           
         C12       1.0000    0.83980   0.95770   0.69070   Biso      1.000     C          -0.017277           
         C13       1.0000    0.68490   0.86770   0.31480   Biso      1.000     C          0.615643  
         C14       1.0000    0.16020   0.04230   0.30930   Biso      1.000     C          -0.017277           
         C15       1.0000    0.15770   0.89790   0.36950   Biso      1.000     C          -0.123676           
         C16       1.0000    0.17210   0.79750   0.31740   Biso      1.000     C          -0.010143000000000001         
         C17       1.0000    0.19100   0.84420   0.20560   Biso      1.000     C          -0.14771900000000002          
         C18       1.0000    0.19310   0.98770   0.14490   Biso      1.000     C          0.079108  
         C19       1.0000    0.17380   0.08660   0.19770   Biso      1.000     C          -0.142042           
         C20       1.0000    0.22370   0.02890   0.02580   Biso      1.000     C          0.085883  
         C21       1.0000    0.33950   0.92660   0.98190   Biso      1.000     C          -0.148273           
         C22       1.0000    0.37190   0.95920   0.87160   Biso      1.000     C          -0.099588           
         C23       1.0000    0.28740   0.09850   0.80550   Biso      1.000     C          -0.027937           
         C24       1.0000    0.17100   0.20290   0.84820   Biso      1.000     C          -0.093931           
         C25       1.0000    0.14020   0.16940   0.95900   Biso      1.000     C          -0.15043199999999998          
         C26       1.0000    0.15680   0.15020   0.36150   Biso      1.000     C          0.5897    
         C27       1.0000    0.16210   0.64540   0.37590   Biso      1.000     C          0.577182  
         C28       1.0000    0.31510   0.13230   0.68520   Biso      1.000     C          0.615643  
         C29       1.0000    0.85980   0.83060   0.04100   Biso      1.000     C          -0.15043299999999998          
         C30       1.0000    0.83790   0.35460   0.62410   Biso      1.000     C          0.577182  
         Cd1       1.0000    0.82667   0.65590   0.54336   Biso      1.000     Cd          0.984823  
         Cd2       1.0000    0.17333   0.34410   0.45664   Biso      1.000     Cd          0.984823  
         Cd3       1.0000    0.50000   0.00000   0.50000   Biso      1.000     Cd          1.017758  
         H1        1.0000    0.06430   0.24070   0.98730   Biso      1.000     H          0.124517  
         H2        1.0000    0.79750   0.22290   0.82870   Biso      1.000     H          0.12197899999999999           
         H3        1.0000    0.83030   0.81570   0.84190   Biso      1.000     H          0.12247899999999999           
         H4        1.0000    0.60230   0.16680   0.97320   Biso      1.000     H          0.11848   
         H5        1.0000    0.55090   0.11190   0.15660   Biso      1.000     H          0.12211199999999998           
         H6        1.0000    0.88730   0.70390   0.19690   Biso      1.000     H          0.126201  
         H7        1.0000    0.85330   0.13180   0.55650   Biso      1.000     H          0.12446600000000001           
         H8        1.0000    0.14670   0.86820   0.44350   Biso      1.000     H          0.12446600000000001           
         H9        1.0000    0.20250   0.77710   0.17130   Biso      1.000     H          0.12197899999999999           
         H10       1.0000    0.16970   0.18430   0.15810   Biso      1.000     H          0.12247899999999999           
         H11       1.0000    0.39770   0.83320   0.02680   Biso      1.000     H          0.11848   
         H12       1.0000    0.44910   0.88810   0.84340   Biso      1.000     H          0.12211199999999998           
         H13       1.0000    0.11270   0.29610   0.80310   Biso      1.000     H          0.126201  
         H14       1.0000    0.93570   0.75930   0.01270   Biso      1.000     H          0.124517  
         O1        1.0000    0.20220   0.55330   0.32770   Biso      1.000     O          -0.512737           
         O2        1.0000    0.11890   0.60330   0.47890   Biso      1.000     O          -0.599877           
         O3        1.0000    0.20150   0.09960   0.45830   Biso      1.000     O          -0.6179680000000001           
         O4        1.0000    0.11610   0.28390   0.31380   Biso      1.000     O          -0.49754899999999996          
         O5        1.0000    0.76570   0.74360   0.37200   Biso      1.000     O          -0.5387810000000001           
         O6        1.0000    0.88110   0.39670   0.52110   Biso      1.000     O          -0.599877           
         O7        1.0000    0.79780   0.44670   0.67230   Biso      1.000     O          -0.512737           
         O8        1.0000    0.79850   0.90040   0.54170   Biso      1.000     O          -0.6179680000000001           
         O9        1.0000    0.88390   0.71610   0.68620   Biso      1.000     O          -0.49754799999999993          
         O10       1.0000    0.41940   0.02860   0.65460   Biso      1.000     O          -0.573523           
         O11       1.0000    0.58060   0.97140   0.34540   Biso      1.000     O          -0.573523           
         O12       1.0000    0.23430   0.25640   0.62800   Biso      1.000     O          -0.5387810000000001 