
##########################################################################
#               Crystallographic Information Format file
#               Produced by PyCifRW module
#
#  This is a CIF file.  CIF has been adopted by the International
#  Union of Crystallography as the standard for data archiving and
#  transmission.
#
#  For information on this file format, follow the CIF links at
#  http://www.iucr.org
##########################################################################

data_image0

_cell_length_a                          11.001
_cell_length_b                          11.001
_cell_length_c                          6.333
_cell_angle_alpha                       90
_cell_angle_beta                        90
_cell_angle_gamma                       120
_symmetry_space_group_name_H-M          'P 1'
_symmetry_int_tables_number             1
loop_
  _symmetry_equiv_pos_as_xyz
         'x, y, z' 
loop_
  _atom_site_label
  _atom_site_occupancy
  _atom_site_fract_x
  _atom_site_fract_y
  _atom_site_fract_z
  _atom_site_thermal_displace_type
  _atom_site_B_iso_or_equiv
  _atom_site_type_symbol
  _atom_site_charge
         C1        1.0000    0.22800   0.89600   0.04500   Biso      1.000     C          0.377863  
         C2        1.0000    0.27200   0.67800   0.49400   Biso      1.000     C          0.41303500000000004           
         C3        1.0000    0.08000   0.05900   0.49400   Biso      1.000     C          0.43794399999999994           
         C4        1.0000    0.66800   0.77200   0.04500   Biso      1.000     C          0.377853  
         C5        1.0000    0.66900   0.88900   0.04900   Biso      1.000     C          0.398773  
         C6        1.0000    0.10400   0.33200   0.04500   Biso      1.000     C          0.37785599999999997           
         C7        1.0000    0.97900   0.92000   0.49400   Biso      1.000     C          0.43795100000000003           
         C8        1.0000    0.40600   0.72800   0.49400   Biso      1.000     C          0.413055  
         C9        1.0000    0.32200   0.59400   0.49400   Biso      1.000     C          0.41308   
         C10       1.0000    0.94100   0.02100   0.49400   Biso      1.000     C          0.437953  
         C11       1.0000    0.22000   0.33100   0.04900   Biso      1.000     C          0.398769  
         C12       1.0000    0.11100   0.78000   0.04900   Biso      1.000     C          0.398778  
         Np1       1.0000    0.00000   0.00000   0.99170   Biso      1.000     Np          2.078332  
         Np2       1.0000    0.33333   0.66667   0.99170   Biso      1.000     Np          2.064561  
         O1        1.0000    0.55400   0.65500   0.95000   Biso      1.000     O          -0.17161099999999999          
         O2        1.0000    0.53700   0.67900   0.13100   Biso      1.000     O          -0.106306           
         O3        1.0000    0.14500   0.07400   0.66800   Biso      1.000     O          -0.513113           
         O4        1.0000    0.77900   0.76900   0.95300   Biso      1.000     O          -0.180001           
         O5        1.0000    0.78100   0.80300   0.12400   Biso      1.000     O          -0.08529199999999999          
         O6        1.0000    0.77200   0.99700   0.91600   Biso      1.000     O          -0.197638           
         O7        1.0000    0.78900   0.98500   0.12400   Biso      1.000     O          -0.124101           
         O8        1.0000    0.54800   0.89700   0.93000   Biso      1.000     O          -0.25511300000000003          
         O9        1.0000    0.55600   0.86500   0.12000   Biso      1.000     O          -0.08074500000000001          
         O10       1.0000    0.26500   0.73100   0.31500   Biso      1.000     O          -0.42078000000000004          
         O11       1.0000    0.19200   0.59900   0.66800   Biso      1.000     O          -0.465912           
         O12       1.0000    0.06900   0.13200   0.31800   Biso      1.000     O          -0.407984           
         O13       1.0000    0.40700   0.80800   0.66800   Biso      1.000     O          -0.46591000000000005          
         O14       1.0000    0.01500   0.80400   0.12400   Biso      1.000     O          -0.124098           
         O15       1.0000    0.30900   0.44400   0.12000   Biso      1.000     O          -0.080746           
         O16       1.0000    0.00300   0.77500   0.91600   Biso      1.000     O          -0.19764400000000001          
         O17       1.0000    0.19700   0.97800   0.12400   Biso      1.000     O          -0.085176           
         O18       1.0000    0.23100   0.01000   0.95300   Biso      1.000     O          -0.180123           
         O19       1.0000    0.92600   0.07100   0.66800   Biso      1.000     O          -0.513116           
         O20       1.0000    0.86800   0.93700   0.31800   Biso      1.000     O          -0.407976           
         O21       1.0000    0.34500   0.89900   0.95000   Biso      1.000     O          -0.171625           
         O22       1.0000    0.32100   0.85800   0.13100   Biso      1.000     O          -0.10631199999999999          
         O23       1.0000    0.10300   0.65100   0.93000   Biso      1.000     O          -0.255128           
         O24       1.0000    0.13500   0.69100   0.12000   Biso      1.000     O          -0.08076  
         O25       1.0000    0.26900   0.53400   0.31500   Biso      1.000     O          -0.42077  
         O26       1.0000    0.40100   0.59300   0.66800   Biso      1.000     O          -0.465895           
         O27       1.0000    0.19600   0.21100   0.12400   Biso      1.000     O          -0.124099           
         O28       1.0000    0.22500   0.22800   0.91600   Biso      1.000     O          -0.19764  
         O29       1.0000    0.02200   0.21900   0.12400   Biso      1.000     O          -0.085172           
         O30       1.0000    0.99000   0.22100   0.95300   Biso      1.000     O          -0.180122           
         O31       1.0000    0.92900   0.85500   0.66800   Biso      1.000     O          -0.513121           
         O32       1.0000    0.06300   0.93100   0.31800   Biso      1.000     O          -0.407983           
         O33       1.0000    0.10100   0.44600   0.95000   Biso      1.000     O          -0.17161099999999999          
         O34       1.0000    0.14200   0.46300   0.13100   Biso      1.000     O          -0.10629300000000001          
         O35       1.0000    0.46600   0.73500   0.31500   Biso      1.000     O          -0.420771           
         O36       1.0000    0.34900   0.45200   0.93000   Biso      1.000     O          -0.255117 