
##########################################################################
#               Crystallographic Information Format file
#               Produced by PyCifRW module
#
#  This is a CIF file.  CIF has been adopted by the International
#  Union of Crystallography as the standard for data archiving and
#  transmission.
#
#  For information on this file format, follow the CIF links at
#  http://www.iucr.org
##########################################################################

data_image0

_cell_length_a                          13.1698
_cell_length_b                          16.6969
_cell_length_c                          19.1965
_cell_angle_alpha                       90
_cell_angle_beta                        90
_cell_angle_gamma                       108.967
_symmetry_space_group_name_H-M          'P 1'
_symmetry_int_tables_number             1
loop_
  _symmetry_equiv_pos_as_xyz
         'x, y, z' 
loop_
  _atom_site_label
  _atom_site_occupancy
  _atom_site_fract_x
  _atom_site_fract_y
  _atom_site_fract_z
  _atom_site_thermal_displace_type
  _atom_site_B_iso_or_equiv
  _atom_site_type_symbol
  _atom_site_charge
         C1        1.0000    0.67870   0.85850   0.36410   Biso      1.000     C          -0.133556           
         C2        1.0000    0.59930   0.70020   0.30170   Biso      1.000     C          -0.011639           
         C3        1.0000    0.56310   0.61470   0.26890   Biso      1.000     C          0.552088  
         C4        1.0000    0.53680   0.72550   0.34940   Biso      1.000     C          -0.11618  
         C5        1.0000    0.42470   0.11720   0.40560   Biso      1.000     C          0.100929  
         C6        1.0000    0.42080   0.16500   0.34850   Biso      1.000     C          -0.272419           
         C7        1.0000    0.47240   0.15650   0.28680   Biso      1.000     C          0.37305   
         C8        1.0000    0.52300   0.09430   0.28670   Biso      1.000     C          -0.305565           
         C9        1.0000    0.52270   0.04920   0.34670   Biso      1.000     C          0.092576  
         C10       1.0000    0.11140   0.90080   0.14730   Biso      1.000     C          0.107708  
         C11       1.0000    0.17790   0.89520   0.09480   Biso      1.000     C          -0.276906           
         C12       1.0000    0.28320   0.95240   0.09290   Biso      1.000     C          0.372212  
         C13       1.0000    0.31330   0.01160   0.14620   Biso      1.000     C          -0.298429           
         C14       1.0000    0.24130   0.01240   0.19720   Biso      1.000     C          0.096287  
         C15       1.0000    0.18190   0.89010   0.34250   Biso      1.000     C          0.07742   
         C16       1.0000    0.25260   0.88020   0.39180   Biso      1.000     C          -0.249333           
         C17       1.0000    0.25790   0.91860   0.45590   Biso      1.000     C          0.342633  
         C18       1.0000    0.18910   0.96580   0.46810   Biso      1.000     C          -0.255584           
         C19       1.0000    0.12140   0.97290   0.41540   Biso      1.000     C          0.1075    
         C20       1.0000    0.00730   0.33810   0.07220   Biso      1.000     C          0.573447  
         C21       1.0000    0.70260   0.75290   0.28620   Biso      1.000     C          -0.13124  
         C22       1.0000    0.07460   0.30590   0.12090   Biso      1.000     C          -0.031745           
         C23       1.0000    0.85530   0.88560   0.30500   Biso      1.000     C          0.559019  
         C24       1.0000    0.57460   0.80590   0.37910   Biso      1.000     C          -0.031743           
         C25       1.0000    0.79740   0.74710   0.78620   Biso      1.000     C          -0.131257           
         C26       1.0000    0.90070   0.79980   0.80170   Biso      1.000     C          -0.01162  
         C27       1.0000    0.93690   0.88530   0.76890   Biso      1.000     C          0.552075  
         C28       1.0000    0.96320   0.77450   0.84940   Biso      1.000     C          -0.116258           
         C29       1.0000    0.07530   0.38280   0.90560   Biso      1.000     C          0.100881  
         C30       1.0000    0.07920   0.33500   0.84850   Biso      1.000     C          -0.272376           
         C31       1.0000    0.97700   0.40570   0.78670   Biso      1.000     C          -0.305539           
         C32       1.0000    0.97730   0.45080   0.84670   Biso      1.000     C          0.092564  
         C33       1.0000    0.38860   0.59920   0.64730   Biso      1.000     C          0.107686  
         C34       1.0000    0.32210   0.60480   0.59480   Biso      1.000     C          -0.276998           
         C35       1.0000    0.21680   0.54760   0.59290   Biso      1.000     C          0.372177  
         C36       1.0000    0.18670   0.48840   0.64620   Biso      1.000     C          -0.298468           
         C37       1.0000    0.25870   0.48760   0.69720   Biso      1.000     C          0.096267  
         C38       1.0000    0.31810   0.60990   0.84250   Biso      1.000     C          0.077705  
         C39       1.0000    0.24740   0.61980   0.89180   Biso      1.000     C          -0.249525           
         C40       1.0000    0.24210   0.58140   0.95590   Biso      1.000     C          0.343067  
         C41       1.0000    0.31090   0.53420   0.96810   Biso      1.000     C          -0.255756           
         C42       1.0000    0.37860   0.52710   0.91540   Biso      1.000     C          0.107856  
         C43       1.0000    0.50730   0.83810   0.42780   Biso      1.000     C          0.573468  
         C44       1.0000    0.74290   0.83120   0.31830   Biso      1.000     C          -0.023293           
         C45       1.0000    0.17870   0.35850   0.13590   Biso      1.000     C          -0.133548           
         C46       1.0000    0.24290   0.33120   0.18170   Biso      1.000     C          -0.023295           
         C47       1.0000    0.35530   0.38560   0.19500   Biso      1.000     C          0.559023  
         C48       1.0000    0.29740   0.24710   0.71380   Biso      1.000     C          -0.13126  
         C49       1.0000    0.40070   0.29980   0.69830   Biso      1.000     C          -0.011593           
         C50       1.0000    0.43690   0.38530   0.73110   Biso      1.000     C          0.55206   
         C51       1.0000    0.46320   0.27450   0.65060   Biso      1.000     C          -0.116253           
         C52       1.0000    0.57530   0.88280   0.59440   Biso      1.000     C          0.100876  
         C53       1.0000    0.57920   0.83500   0.65150   Biso      1.000     C          -0.272367           
         C54       1.0000    0.52760   0.84350   0.71320   Biso      1.000     C          0.373071  
         C55       1.0000    0.47700   0.90570   0.71330   Biso      1.000     C          -0.305542           
         C56       1.0000    0.47730   0.95080   0.65330   Biso      1.000     C          0.092562  
         C57       1.0000    0.88860   0.09920   0.85270   Biso      1.000     C          0.107703  
         C58       1.0000    0.82210   0.10480   0.90520   Biso      1.000     C          -0.276968           
         C59       1.0000    0.71680   0.04760   0.90710   Biso      1.000     C          0.372189  
         C60       1.0000    0.68670   0.98840   0.85380   Biso      1.000     C          -0.29844  
         C61       1.0000    0.75870   0.98760   0.80280   Biso      1.000     C          0.096276  
         C62       1.0000    0.81810   0.10990   0.65750   Biso      1.000     C          0.077713  
         C63       1.0000    0.74740   0.11980   0.60820   Biso      1.000     C          -0.249497           
         C64       1.0000    0.74210   0.08140   0.54410   Biso      1.000     C          0.343065  
         C65       1.0000    0.81090   0.03420   0.53190   Biso      1.000     C          -0.25573  
         C66       1.0000    0.87860   0.02710   0.58460   Biso      1.000     C          0.10786   
         C67       1.0000    0.14470   0.11440   0.69500   Biso      1.000     C          0.559006  
         C68       1.0000    0.25710   0.16880   0.68170   Biso      1.000     C          -0.023288           
         C69       1.0000    0.32130   0.14150   0.63590   Biso      1.000     C          -0.133647           
         C70       1.0000    0.42540   0.19410   0.62090   Biso      1.000     C          -0.03181  
         C71       1.0000    0.20260   0.25290   0.21380   Biso      1.000     C          -0.131234           
         C72       1.0000    0.09930   0.20020   0.19830   Biso      1.000     C          -0.011638           
         C73       1.0000    0.06310   0.11470   0.23110   Biso      1.000     C          0.552085  
         C74       1.0000    0.03680   0.22550   0.15060   Biso      1.000     C          -0.116183           
         C75       1.0000    0.92470   0.61720   0.09440   Biso      1.000     C          0.100925  
         C76       1.0000    0.92080   0.66500   0.15150   Biso      1.000     C          -0.272421           
         C77       1.0000    0.97240   0.65650   0.21320   Biso      1.000     C          0.373041  
         C78       1.0000    0.02300   0.59430   0.21330   Biso      1.000     C          -0.305571           
         C79       1.0000    0.02270   0.54920   0.15330   Biso      1.000     C          0.092574  
         C80       1.0000    0.64470   0.61440   0.80500   Biso      1.000     C          0.558991  
         C81       1.0000    0.61140   0.40080   0.35270   Biso      1.000     C          0.107713  
         C82       1.0000    0.78320   0.45240   0.40710   Biso      1.000     C          0.372222  
         C83       1.0000    0.81330   0.51160   0.35380   Biso      1.000     C          -0.298423           
         C84       1.0000    0.74130   0.51240   0.30280   Biso      1.000     C          0.096289  
         C85       1.0000    0.68190   0.39010   0.15750   Biso      1.000     C          0.07742   
         C86       1.0000    0.75260   0.38020   0.10820   Biso      1.000     C          -0.249341           
         C87       1.0000    0.75790   0.41860   0.04410   Biso      1.000     C          0.342654  
         C88       1.0000    0.68910   0.46580   0.03190   Biso      1.000     C          -0.255575           
         C89       1.0000    0.62140   0.47290   0.08460   Biso      1.000     C          0.107509  
         C90       1.0000    0.49270   0.16190   0.57220   Biso      1.000     C          0.573511  
         C91       1.0000    0.67790   0.39520   0.40520   Biso      1.000     C          -0.276904           
         C92       1.0000    0.75710   0.66880   0.81830   Biso      1.000     C          -0.023253           
         C93       1.0000    0.02760   0.34350   0.78680   Biso      1.000     C          0.373064  
         C94       1.0000    0.92540   0.69410   0.87910   Biso      1.000     C          -0.031807           
         C95       1.0000    0.82130   0.64150   0.86410   Biso      1.000     C          -0.133631           
         C96       1.0000    0.99270   0.66190   0.92780   Biso      1.000     C          0.573491  
         H1        1.0000    0.34300   0.86200   0.50400   Biso      1.000     H          0.32362   
         H2        1.0000    0.46800   0.68790   0.36190   Biso      1.000     H          0.12158   
         H3        1.0000    0.38850   0.12490   0.44660   Biso      1.000     H          0.094018  
         H4        1.0000    0.38260   0.20440   0.35080   Biso      1.000     H          0.14873   
         H5        1.0000    0.55690   0.08350   0.24570   Biso      1.000     H          0.136731  
         H6        1.0000    0.55750   0.00740   0.34530   Biso      1.000     H          0.094142  
         H7        1.0000    0.04060   0.86150   0.14770   Biso      1.000     H          0.096471  
         H8        1.0000    0.15350   0.85320   0.05980   Biso      1.000     H          0.145619  
         H9        1.0000    0.38370   0.05140   0.14710   Biso      1.000     H          0.123006  
         H10       1.0000    0.26410   0.05310   0.23350   Biso      1.000     H          0.089129  
         H11       1.0000    0.29740   0.84710   0.38180   Biso      1.000     H          0.147149  
         H12       1.0000    0.18910   0.99250   0.51180   Biso      1.000     H          0.1491    
         H13       1.0000    0.07510   0.00510   0.42430   Biso      1.000     H          0.10231   
         H14       1.0000    0.44900   0.24700   0.23100   Biso      1.000     H          0.357829  
         H15       1.0000    0.50200   0.19000   0.19400   Biso      1.000     H          0.3389    
         H16       1.0000    0.32200   0.91900   0.00800   Biso      1.000     H          0.363955  
         H17       1.0000    0.41500   0.99000   0.04400   Biso      1.000     H          0.351298  
         H18       1.0000    0.74540   0.73520   0.25370   Biso      1.000     H          0.11735   
         H19       1.0000    0.70590   0.91290   0.38510   Biso      1.000     H          0.11616   
         H20       1.0000    0.19800   0.58500   0.04900   Biso      1.000     H          0.326104  
         H21       1.0000    0.15700   0.63800   0.00400   Biso      1.000     H          0.323552  
         H22       1.0000    0.79410   0.58710   0.88510   Biso      1.000     H          0.116134  
         H23       1.0000    0.75460   0.76480   0.75370   Biso      1.000     H          0.117333  
         H24       1.0000    0.03200   0.81210   0.86190   Biso      1.000     H          0.121555  
         H25       1.0000    0.11150   0.37510   0.94660   Biso      1.000     H          0.093997  
         H26       1.0000    0.11740   0.29560   0.85080   Biso      1.000     H          0.148746  
         H27       1.0000    0.94310   0.41650   0.74570   Biso      1.000     H          0.136731  
         H28       1.0000    0.94250   0.49260   0.84530   Biso      1.000     H          0.094163  
         H29       1.0000    0.45940   0.63850   0.64770   Biso      1.000     H          0.096466  
         H30       1.0000    0.34650   0.64680   0.55980   Biso      1.000     H          0.145569  
         H31       1.0000    0.11630   0.44860   0.64710   Biso      1.000     H          0.122983  
         H32       1.0000    0.23590   0.44690   0.73350   Biso      1.000     H          0.089131  
         H33       1.0000    0.32160   0.63790   0.79910   Biso      1.000     H          0.088275  
         H34       1.0000    0.20260   0.65290   0.88180   Biso      1.000     H          0.147166  
         H35       1.0000    0.31090   0.50750   0.01180   Biso      1.000     H          0.149063  
         H36       1.0000    0.42490   0.49490   0.92430   Biso      1.000     H          0.102289  
         H37       1.0000    0.05100   0.25300   0.73100   Biso      1.000     H          0.357847  
         H38       1.0000    0.99800   0.31000   0.69400   Biso      1.000     H          0.338895  
         H39       1.0000    0.17800   0.58100   0.50800   Biso      1.000     H          0.363938  
         H40       1.0000    0.08500   0.51000   0.54400   Biso      1.000     H          0.35129   
         H41       1.0000    0.30200   0.91500   0.54900   Biso      1.000     H          0.326234  
         H42       1.0000    0.20590   0.41290   0.11490   Biso      1.000     H          0.116168  
         H43       1.0000    0.17840   0.86210   0.29910   Biso      1.000     H          0.088287  
         H44       1.0000    0.96800   0.18790   0.13810   Biso      1.000     H          0.121574  
         H45       1.0000    0.61150   0.87510   0.55340   Biso      1.000     H          0.094     
         H46       1.0000    0.61740   0.79560   0.64920   Biso      1.000     H          0.148758  
         H47       1.0000    0.44310   0.91650   0.75430   Biso      1.000     H          0.136735  
         H48       1.0000    0.44250   0.99260   0.65470   Biso      1.000     H          0.094162  
         H49       1.0000    0.95940   0.13850   0.85230   Biso      1.000     H          0.096481  
         H50       1.0000    0.84650   0.14680   0.94020   Biso      1.000     H          0.145588  
         H51       1.0000    0.61630   0.94860   0.85290   Biso      1.000     H          0.122994  
         H52       1.0000    0.73590   0.94690   0.76650   Biso      1.000     H          0.089134  
         H53       1.0000    0.53200   0.31210   0.63810   Biso      1.000     H          0.121551  
         H54       1.0000    0.82160   0.13790   0.70090   Biso      1.000     H          0.08829   
         H55       1.0000    0.81090   0.00750   0.48820   Biso      1.000     H          0.149073  
         H56       1.0000    0.92490   0.99490   0.57570   Biso      1.000     H          0.102305  
         H57       1.0000    0.55100   0.75300   0.76900   Biso      1.000     H          0.357857  
         H58       1.0000    0.49800   0.81000   0.80600   Biso      1.000     H          0.338894  
         H59       1.0000    0.67800   0.08100   0.99200   Biso      1.000     H          0.363951  
         H60       1.0000    0.58500   0.01000   0.95600   Biso      1.000     H          0.351297  
         H61       1.0000    0.65700   0.13800   0.49600   Biso      1.000     H          0.323561  
         H62       1.0000    0.69800   0.08500   0.45100   Biso      1.000     H          0.326114  
         H63       1.0000    0.24540   0.23520   0.24630   Biso      1.000     H          0.117344  
         H64       1.0000    0.25460   0.26480   0.74630   Biso      1.000     H          0.117339  
         H65       1.0000    0.70260   0.15290   0.61820   Biso      1.000     H          0.147174  
         H66       1.0000    0.29410   0.08710   0.61490   Biso      1.000     H          0.116128  
         H67       1.0000    0.88850   0.62490   0.05340   Biso      1.000     H          0.094016  
         H68       1.0000    0.88260   0.70440   0.14920   Biso      1.000     H          0.148722  
         H69       1.0000    0.05690   0.58350   0.25430   Biso      1.000     H          0.136734  
         H70       1.0000    0.05750   0.50740   0.15470   Biso      1.000     H          0.094142  
         H71       1.0000    0.54060   0.36150   0.35230   Biso      1.000     H          0.096474  
         H72       1.0000    0.88370   0.55140   0.35290   Biso      1.000     H          0.123013  
         H73       1.0000    0.76410   0.55310   0.26650   Biso      1.000     H          0.089136  
         H74       1.0000    0.67840   0.36210   0.20090   Biso      1.000     H          0.088283  
         H75       1.0000    0.65350   0.35320   0.44020   Biso      1.000     H          0.145617  
         H76       1.0000    0.68910   0.49250   0.98820   Biso      1.000     H          0.149103  
         H77       1.0000    0.79740   0.34710   0.11820   Biso      1.000     H          0.147154  
         H78       1.0000    0.84300   0.36200   0.99600   Biso      1.000     H          0.323616  
         H79       1.0000    0.91500   0.49000   0.45600   Biso      1.000     H          0.351313  
         H80       1.0000    0.82200   0.41900   0.49200   Biso      1.000     H          0.363961  
         H81       1.0000    0.80200   0.41500   0.95100   Biso      1.000     H          0.32623   
         H82       1.0000    0.94900   0.74700   0.26900   Biso      1.000     H          0.357825  
         H83       1.0000    0.57510   0.50510   0.07570   Biso      1.000     H          0.102313  
         H84       1.0000    0.00200   0.69000   0.30600   Biso      1.000     H          0.338895  
         N1        1.0000    0.47720   0.05940   0.40740   Biso      1.000     N          -0.262153           
         N2        1.0000    0.85360   0.45030   0.45770   Biso      1.000     N          -0.715847           
         N3        1.0000    0.63960   0.45860   0.30120   Biso      1.000     N          -0.252844           
         N4        1.0000    0.97310   0.70430   0.27010   Biso      1.000     N          -0.687686           
         N5        1.0000    0.97720   0.55940   0.09260   Biso      1.000     N          -0.262121           
         N6        1.0000    0.33160   0.91320   0.50660   Biso      1.000     N          -0.637298           
         N7        1.0000    0.11690   0.93740   0.35250   Biso      1.000     N          -0.239136           
         N8        1.0000    0.35360   0.95030   0.04230   Biso      1.000     N          -0.715848           
         N9        1.0000    0.13960   0.95860   0.19880   Biso      1.000     N          -0.252849           
         N10       1.0000    0.47310   0.20430   0.22990   Biso      1.000     N          -0.687679           
         N11       1.0000    0.16840   0.58680   0.00660   Biso      1.000     N          -0.637816           
         N12       1.0000    0.86040   0.04140   0.80120   Biso      1.000     N          -0.2527   
         N13       1.0000    0.14640   0.54970   0.54230   Biso      1.000     N          -0.715948           
         N14       1.0000    0.36040   0.54140   0.69880   Biso      1.000     N          -0.252686           
         N15       1.0000    0.02690   0.29570   0.72990   Biso      1.000     N          -0.687646           
         N16       1.0000    0.02280   0.44060   0.90740   Biso      1.000     N          -0.26216  
         N17       1.0000    0.66840   0.08680   0.49340   Biso      1.000     N          -0.637794           
         N18       1.0000    0.88310   0.06260   0.64750   Biso      1.000     N          -0.239114           
         N19       1.0000    0.64640   0.04970   0.95770   Biso      1.000     N          -0.715919           
         N20       1.0000    0.52280   0.94060   0.59260   Biso      1.000     N          -0.262194           
         N21       1.0000    0.52690   0.79570   0.77010   Biso      1.000     N          -0.687627           
         N22       1.0000    0.61690   0.43740   0.14750   Biso      1.000     N          -0.239147           
         N23       1.0000    0.38310   0.56260   0.85250   Biso      1.000     N          -0.239115           
         N24       1.0000    0.83160   0.41320   0.99340   Biso      1.000     N          -0.63732  
         Ni1       1.0000    0.46247   0.52787   0.77383   Biso      1.000     Ni          0.695481  
         Ni2       1.0000    0.50000   0.00000   0.50000   Biso      1.000     Ni          0.717424  
         Ni3       1.0000    0.00000   0.50000   0.00000   Biso      1.000     Ni          0.717223  
         Ni4       1.0000    0.96247   0.02787   0.72617   Biso      1.000     Ni          0.69557   
         Ni5       1.0000    0.53753   0.47213   0.22617   Biso      1.000     Ni          0.696484  
         Ni6       1.0000    0.03753   0.97213   0.27383   Biso      1.000     Ni          0.696491  
         O1        1.0000    0.08800   0.13995   0.73778   Biso      1.000     O          -0.557728           
         O2        1.0000    0.10560   0.04336   0.66533   Biso      1.000     O          -0.529692           
         O3        1.0000    0.58020   0.21150   0.54920   Biso      1.000     O          -0.603856           
         O4        1.0000    0.45420   0.08407   0.55709   Biso      1.000     O          -0.577612           
         O5        1.0000    0.98600   0.05522   0.20454   Biso      1.000     O          -0.532707           
         O6        1.0000    0.11350   0.10061   0.28293   Biso      1.000     O          -0.538595           
         O7        1.0000    0.41200   0.36005   0.23778   Biso      1.000     O          -0.557647           
         O8        1.0000    0.39440   0.45664   0.16533   Biso      1.000     O          -0.529567           
         O9        1.0000    0.91980   0.28850   0.04920   Biso      1.000     O          -0.603823           
         O10       1.0000    0.04580   0.41593   0.05709   Biso      1.000     O          -0.577527           
         O11       1.0000    0.48600   0.55522   0.29546   Biso      1.000     O          -0.532697           
         O12       1.0000    0.91200   0.86005   0.26222   Biso      1.000     O          -0.557643           
         O13       1.0000    0.38650   0.39939   0.78293   Biso      1.000     O          -0.538781           
         O14       1.0000    0.89440   0.95664   0.33467   Biso      1.000     O          -0.529582           
         O15       1.0000    0.41980   0.78850   0.45080   Biso      1.000     O          -0.60381  
         O16       1.0000    0.54580   0.91593   0.44291   Biso      1.000     O          -0.577565           
         O17       1.0000    0.01400   0.94478   0.79546   Biso      1.000     O          -0.532796           
         O18       1.0000    0.88650   0.89939   0.71707   Biso      1.000     O          -0.538716           
         O19       1.0000    0.58800   0.63995   0.76222   Biso      1.000     O          -0.557797           
         O20       1.0000    0.60560   0.54336   0.83467   Biso      1.000     O          -0.529737           
         O21       1.0000    0.08020   0.71150   0.95080   Biso      1.000     O          -0.603858           
         O22       1.0000    0.95420   0.58407   0.94291   Biso      1.000     O          -0.577581           
         O23       1.0000    0.61350   0.60061   0.21707   Biso      1.000     O          -0.538585           
         O24       1.0000    0.51400   0.44478   0.70454   Biso      1.000     O          -0.532857 