
##########################################################################
#               Crystallographic Information Format file
#               Produced by PyCifRW module
#
#  This is a CIF file.  CIF has been adopted by the International
#  Union of Crystallography as the standard for data archiving and
#  transmission.
#
#  For information on this file format, follow the CIF links at
#  http://www.iucr.org
##########################################################################

data_image0

_cell_length_a                          5.1186
_cell_length_b                          11.3254
_cell_length_c                          12.5766
_cell_angle_alpha                       92.0293
_cell_angle_beta                        101.742
_cell_angle_gamma                       79.979
_symmetry_space_group_name_H-M          'P 1'
_symmetry_int_tables_number             1
loop_
  _symmetry_equiv_pos_as_xyz
         'x, y, z' 
loop_
  _atom_site_label
  _atom_site_occupancy
  _atom_site_fract_x
  _atom_site_fract_y
  _atom_site_fract_z
  _atom_site_thermal_displace_type
  _atom_site_B_iso_or_equiv
  _atom_site_type_symbol
  _atom_site_charge
         C1        1.0000    0.35199   0.99660   0.04298   Biso      1.000     C          0.018692  
         C2        1.0000    0.25182   0.42790   0.49984   Biso      1.000     C          -0.15679400000000002          
         C3        1.0000    0.34821   0.52590   0.46802   Biso      1.000     C          0.028678  
         C4        1.0000    0.58242   0.55590   0.53064   Biso      1.000     C          -0.14523  
         C5        1.0000    0.71173   0.48680   0.62126   Biso      1.000     C          0.078935  
         C6        1.0000    0.27800   0.09810   0.87240   Biso      1.000     C          0.10335   
         C7        1.0000    0.43535   0.01410   0.94670   Biso      1.000     C          -0.151525           
         C8        1.0000    0.11261   0.06630   0.05982   Biso      1.000     C          -0.145682           
         C9        1.0000    0.96966   0.14970   0.98332   Biso      1.000     C          0.07612100000000001           
         C10       1.0000    0.51685   0.90840   0.12790   Biso      1.000     C          0.5788409999999999  
         C11       1.0000    0.09047   0.98680   0.37874   Biso      1.000     C          0.078087  
         C12       1.0000    0.05178   0.05590   0.46936   Biso      1.000     C          -0.147299           
         C13       1.0000    0.88019   0.02590   0.53198   Biso      1.000     C          0.027043  
         C14       1.0000    0.75198   0.92790   0.50016   Biso      1.000     C          -0.15349300000000002          
         C15       1.0000    0.79923   0.86350   0.40866   Biso      1.000     C          0.093297  
         C16       1.0000    0.82603   0.09810   0.63166   Biso      1.000     C          0.54788   
         C17       1.0000    0.40560   0.59810   0.12760   Biso      1.000     C          0.10496099999999998           
         C18       1.0000    0.48865   0.51410   0.05330   Biso      1.000     C          -0.152699           
         C19       1.0000    0.30901   0.49660   0.95702   Biso      1.000     C          0.021068  
         C20       1.0000    0.05279   0.56630   0.94018   Biso      1.000     C          -0.146594           
         C21       1.0000    0.98634   0.64970   0.01668   Biso      1.000     C          0.079295  
         C22       1.0000    0.38895   0.40840   0.87210   Biso      1.000     C          0.57397   
         C23       1.0000    0.39057   0.36350   0.59134   Biso      1.000     C          0.094026  
         C24       1.0000    0.19437   0.59810   0.36834   Biso      1.000     C          0.551329  
         Cu1       1.0000    0.05564   0.78349   0.22594   Biso      1.000     Cu          0.796261  
         Cu2       1.0000    0.82970   0.28349   0.77406   Biso      1.000     Cu          0.7959229999999999  
         H1        1.0000    0.92510   0.55650   0.87660   Biso      1.000     H          0.129985  
         H2        1.0000    0.87250   0.50700   0.66280   Biso      1.000     H          0.092133  
         H3        1.0000    0.81330   0.69750   0.00300   Biso      1.000     H          0.093113  
         H4        1.0000    0.09250   0.40560   0.45920   Biso      1.000     H          0.129887  
         H5        1.0000    0.32420   0.29720   0.61180   Biso      1.000     H          0.102407  
         H6        1.0000    0.33490   0.10780   0.80720   Biso      1.000     H          0.104146  
         H7        1.0000    0.59700   0.96920   0.93240   Biso      1.000     H          0.132727  
         H8        1.0000    0.04850   0.05650   0.12340   Biso      1.000     H          0.13047899999999998           
         H9        1.0000    0.65270   0.62200   0.51220   Biso      1.000     H          0.134236  
         H10       1.0000    0.20970   0.00700   0.33720   Biso      1.000     H          0.094105  
         H11       1.0000    0.14050   0.12200   0.48780   Biso      1.000     H          0.136139  
         H12       1.0000    0.63330   0.90560   0.54080   Biso      1.000     H          0.129031  
         H13       1.0000    0.71240   0.79720   0.38820   Biso      1.000     H          0.102493  
         H14       1.0000    0.52770   0.60780   0.19280   Biso      1.000     H          0.104941  
         H15       1.0000    0.66460   0.46920   0.06760   Biso      1.000     H          0.13176300000000002           
         H16       1.0000    0.81030   0.19750   0.99700   Biso      1.000     H          0.09438200000000001           
         N1        1.0000    0.15953   0.66610   0.11086   Biso      1.000     N          -0.21345100000000003          
         N2        1.0000    0.96787   0.89350   0.34754   Biso      1.000     N          -0.202012           
         N3        1.0000    0.62033   0.39350   0.65246   Biso      1.000     N          -0.200069           
         N4        1.0000    0.04867   0.16610   0.88914   Biso      1.000     N          -0.212036           
         O1        1.0000    0.64464   0.37390   0.88168   Biso      1.000     O          -0.559611           
         O2        1.0000    0.30285   0.68310   0.34350   Biso      1.000     O          -0.534227           
         O3        1.0000    0.97605   0.57230   0.32010   Biso      1.000     O          -0.5642010000000001           
         O4        1.0000    0.76296   0.87390   0.11832   Biso      1.000     O          -0.56134  
         O5        1.0000    0.40967   0.87630   0.19954   Biso      1.000     O          -0.5753560000000001           
         O6        1.0000    0.95935   0.18310   0.65650   Biso      1.000     O          -0.533713           
         O7        1.0000    0.65595   0.07230   0.67990   Biso      1.000     O          -0.560852           
         O8        1.0000    0.21013   0.37630   0.80046   Biso      1.000     O          -0.573538 