
##########################################################################
#               Crystallographic Information Format file
#               Produced by PyCifRW module
#
#  This is a CIF file.  CIF has been adopted by the International
#  Union of Crystallography as the standard for data archiving and
#  transmission.
#
#  For information on this file format, follow the CIF links at
#  http://www.iucr.org
##########################################################################

data_image0

_cell_length_a                          9.938
_cell_length_b                          11.713
_cell_length_c                          13.498
_cell_angle_alpha                       66.88
_cell_angle_beta                        86.94
_cell_angle_gamma                       76.45
_symmetry_space_group_name_H-M          'P 1'
_symmetry_int_tables_number             1
loop_
  _symmetry_equiv_pos_as_xyz
         'x, y, z' 
loop_
  _atom_site_label
  _atom_site_occupancy
  _atom_site_fract_x
  _atom_site_fract_y
  _atom_site_fract_z
  _atom_site_thermal_displace_type
  _atom_site_B_iso_or_equiv
  _atom_site_type_symbol
  _atom_site_charge
         C1        1.0000    0.03900   0.51130   0.53940   Biso      1.000     C          0.176225  
         C2        1.0000    0.28890   0.20870   0.15876   Biso      1.000     C          0.6043270000000001  
         C3        1.0000    0.25250   0.13480   0.27255   Biso      1.000     C          0.030031  
         C4        1.0000    0.12360   0.16780   0.31040   Biso      1.000     C          -0.17341600000000001          
         C5        1.0000    0.09850   0.09910   0.41640   Biso      1.000     C          0.083118  
         C6        1.0000    0.31570   0.96910   0.44740   Biso      1.000     C          0.169942  
         C7        1.0000    0.35010   0.03350   0.34251   Biso      1.000     C          -0.184034           
         C8        1.0000    0.99100   0.49260   0.64150   Biso      1.000     C          -0.175887           
         C9        1.0000    0.41830   0.85960   0.52490   Biso      1.000     C          0.176777  
         C10       1.0000    0.61560   0.66530   0.66060   Biso      1.000     C          -0.158974           
         C11       1.0000    0.48980   0.70140   0.70161   Biso      1.000     C          -0.0009460000000000001        
         C12       1.0000    0.38920   0.80010   0.63257   Biso      1.000     C          -0.173993           
         C13       1.0000    0.46510   0.63270   0.81908   Biso      1.000     C          0.7117859999999999  
         C14       1.0000    0.01320   0.49580   0.82367   Biso      1.000     C          0.700873  
         C15       1.0000    0.06590   0.51320   0.71344   Biso      1.000     C          0.004802000000000001          
         C16       1.0000    0.63400   0.72820   0.55170   Biso      1.000     C          0.087615  
         C17       1.0000    0.71110   0.79130   0.84124   Biso      1.000     C          0.6043270000000001  
         C18       1.0000    0.74750   0.86520   0.72745   Biso      1.000     C          0.030031  
         C19       1.0000    0.87640   0.83220   0.68960   Biso      1.000     C          -0.17341600000000001          
         C20       1.0000    0.00900   0.50740   0.35850   Biso      1.000     C          -0.17588900000000002          
         C21       1.0000    0.96100   0.48870   0.46060   Biso      1.000     C          0.176226  
         C22       1.0000    0.77350   0.42950   0.42320   Biso      1.000     C          0.09407   
         C23       1.0000    0.81330   0.44650   0.31970   Biso      1.000     C          -0.150374           
         C24       1.0000    0.93410   0.48680   0.28656   Biso      1.000     C          0.004804  
         C25       1.0000    0.98680   0.50420   0.17633   Biso      1.000     C          0.700873  
         C26       1.0000    0.53490   0.36730   0.18092   Biso      1.000     C          0.7117859999999999  
         C27       1.0000    0.61080   0.19990   0.36743   Biso      1.000     C          -0.173992           
         C28       1.0000    0.51020   0.29860   0.29839   Biso      1.000     C          -0.00095  
         C29       1.0000    0.38440   0.33470   0.33940   Biso      1.000     C          -0.158971           
         C30       1.0000    0.36600   0.27180   0.44830   Biso      1.000     C          0.087614  
         C31       1.0000    0.58170   0.14040   0.47510   Biso      1.000     C          0.176777  
         C32       1.0000    0.64990   0.96650   0.65749   Biso      1.000     C          -0.18403599999999998          
         C33       1.0000    0.68430   0.03090   0.55260   Biso      1.000     C          0.169943  
         C34       1.0000    0.90150   0.90090   0.58360   Biso      1.000     C          0.083118  
         C35       1.0000    0.18670   0.55350   0.68030   Biso      1.000     C          -0.150374           
         C36       1.0000    0.22650   0.57050   0.57680   Biso      1.000     C          0.094072  
         Gd1       1.0000    0.23641   0.52617   0.00482   Biso      1.000     Gd          2.133854  
         Gd2       1.0000    0.76359   0.47383   0.99518   Biso      1.000     Gd          2.133854  
         H1        1.0000    0.05520   0.23480   0.26550   Biso      1.000     H          0.11848800000000001           
         H2        1.0000    0.01160   0.12220   0.44150   Biso      1.000     H          0.08109   
         H3        1.0000    0.43790   0.00890   0.31930   Biso      1.000     H          0.132352  
         H4        1.0000    0.71800   0.70220   0.52420   Biso      1.000     H          0.08731699999999999           
         H5        1.0000    0.68610   0.60040   0.70490   Biso      1.000     H          0.124498  
         H6        1.0000    0.30350   0.82620   0.65780   Biso      1.000     H          0.134648  
         H7        1.0000    0.23980   0.56880   0.72640   Biso      1.000     H          0.115061  
         H8        1.0000    0.30780   0.59790   0.55480   Biso      1.000     H          0.09283200000000001           
         H9        1.0000    0.09120   0.53380   0.33860   Biso      1.000     H          0.134496  
         H10       1.0000    0.94480   0.76520   0.73450   Biso      1.000     H          0.11848800000000001           
         H11       1.0000    0.98840   0.87780   0.55850   Biso      1.000     H          0.08109   
         H12       1.0000    0.56210   0.99110   0.68070   Biso      1.000     H          0.132352  
         H13       1.0000    0.28200   0.29780   0.47580   Biso      1.000     H          0.08731699999999999           
         H14       1.0000    0.31390   0.39960   0.29510   Biso      1.000     H          0.124497  
         H15       1.0000    0.69650   0.17380   0.34220   Biso      1.000     H          0.134648  
         H16       1.0000    0.76020   0.43120   0.27360   Biso      1.000     H          0.115061  
         H17       1.0000    0.69220   0.40210   0.44520   Biso      1.000     H          0.09283200000000001           
         H18       1.0000    0.90880   0.46620   0.66140   Biso      1.000     H          0.134496  
         N1        1.0000    0.84380   0.44970   0.49350   Biso      1.000     N          -0.28448  
         N2        1.0000    0.80860   0.99870   0.51490   Biso      1.000     N          -0.30285100000000004          
         N3        1.0000    0.46080   0.17680   0.51570   Biso      1.000     N          -0.275057           
         N4        1.0000    0.53920   0.82320   0.48430   Biso      1.000     N          -0.275057           
         N5        1.0000    0.19140   0.00130   0.48510   Biso      1.000     N          -0.30285100000000004          
         N6        1.0000    0.15620   0.55030   0.50650   Biso      1.000     N          -0.28448  
         O1        1.0000    0.91115   0.49376   0.11065   Biso      1.000     O          -0.735714           
         O2        1.0000    0.39650   0.16411   0.12352   Biso      1.000     O          -0.555998           
         O3        1.0000    0.20441   0.31425   0.10700   Biso      1.000     O          -0.73524  
         O4        1.0000    0.34383   0.64912   0.84964   Biso      1.000     O          -0.693729           
         O5        1.0000    0.56839   0.55877   0.87834   Biso      1.000     O          -0.742459           
         O6        1.0000    0.08885   0.50624   0.88935   Biso      1.000     O          -0.735714           
         O7        1.0000    0.89562   0.47307   0.84225   Biso      1.000     O          -0.651049           
         O8        1.0000    0.60350   0.83589   0.87648   Biso      1.000     O          -0.555998           
         O9        1.0000    0.79559   0.68575   0.89300   Biso      1.000     O          -0.73524  
         O10       1.0000    0.65617   0.35088   0.15036   Biso      1.000     O          -0.693729           
         O11       1.0000    0.43161   0.44123   0.12166   Biso      1.000     O          -0.742459           
         O12       1.0000    0.10438   0.52693   0.15775   Biso      1.000     O          -0.651049 