
##########################################################################
#               Crystallographic Information Format file
#               Produced by PyCifRW module
#
#  This is a CIF file.  CIF has been adopted by the International
#  Union of Crystallography as the standard for data archiving and
#  transmission.
#
#  For information on this file format, follow the CIF links at
#  http://www.iucr.org
##########################################################################

data_image0

_cell_length_a                          7.1243
_cell_length_b                          10.6933
_cell_length_c                          17.092
_cell_angle_alpha                       97.109
_cell_angle_beta                        90
_cell_angle_gamma                       90
_symmetry_space_group_name_H-M          'P 1'
_symmetry_int_tables_number             1
loop_
  _symmetry_equiv_pos_as_xyz
         'x, y, z' 
loop_
  _atom_site_label
  _atom_site_occupancy
  _atom_site_fract_x
  _atom_site_fract_y
  _atom_site_fract_z
  _atom_site_thermal_displace_type
  _atom_site_B_iso_or_equiv
  _atom_site_type_symbol
  _atom_site_charge
         C1        1.0000    0.90970   0.09870   0.47050   Biso      1.000     C          -0.135877           
         C2        1.0000    0.92750   0.95280   0.56700   Biso      1.000     C          -0.028383           
         C3        1.0000    0.09030   0.90130   0.52950   Biso      1.000     C          -0.135878           
         C4        1.0000    0.83920   0.05320   0.53700   Biso      1.000     C          -0.033611           
         C5        1.0000    0.67730   0.12160   0.57920   Biso      1.000     C          0.613246  
         C6        1.0000    0.82610   0.91420   0.85000   Biso      1.000     C          0.636431  
         C7        1.0000    0.92440   0.95800   0.92640   Biso      1.000     C          -0.005357           
         C8        1.0000    0.80930   0.00690   0.98830   Biso      1.000     C          -0.118889           
         C9        1.0000    0.85280   0.89030   0.63530   Biso      1.000     C          0.677303  
         C10       1.0000    0.11860   0.95120   0.93800   Biso      1.000     C          -0.033275           
         C11       1.0000    0.35280   0.60970   0.86470   Biso      1.000     C          0.677304  
         C12       1.0000    0.42750   0.54720   0.93300   Biso      1.000     C          -0.028384           
         C13       1.0000    0.59030   0.59870   0.97050   Biso      1.000     C          -0.135879           
         C14       1.0000    0.33920   0.44680   0.96300   Biso      1.000     C          -0.033611           
         C15       1.0000    0.17730   0.37840   0.92080   Biso      1.000     C          0.613245  
         C16       1.0000    0.67390   0.41420   0.35000   Biso      1.000     C          0.636432  
         C17       1.0000    0.57560   0.45800   0.42640   Biso      1.000     C          -0.005358           
         C18       1.0000    0.25410   0.90330   0.87400   Biso      1.000     C          0.632821  
         C19       1.0000    0.75410   0.59670   0.62600   Biso      1.000     C          0.632821  
         C20       1.0000    0.61860   0.54880   0.56200   Biso      1.000     C          -0.033276           
         C21       1.0000    0.30930   0.49310   0.51170   Biso      1.000     C          -0.118889           
         C22       1.0000    0.82270   0.62160   0.07920   Biso      1.000     C          0.613246  
         C23       1.0000    0.66080   0.55320   0.03700   Biso      1.000     C          -0.03361  
         C24       1.0000    0.40970   0.40130   0.02950   Biso      1.000     C          -0.135878           
         C25       1.0000    0.57250   0.45280   0.06700   Biso      1.000     C          -0.028385           
         C26       1.0000    0.64720   0.39030   0.13530   Biso      1.000     C          0.677303  
         C27       1.0000    0.74590   0.09670   0.12600   Biso      1.000     C          0.63282   
         C28       1.0000    0.88140   0.04880   0.06200   Biso      1.000     C          -0.033272           
         C29       1.0000    0.19070   0.99310   0.01170   Biso      1.000     C          -0.118886           
         C30       1.0000    0.07560   0.04200   0.07360   Biso      1.000     C          -0.005356           
         C31       1.0000    0.17390   0.08580   0.15000   Biso      1.000     C          0.636432  
         C32       1.0000    0.32270   0.87840   0.42080   Biso      1.000     C          0.613245  
         C33       1.0000    0.16080   0.94680   0.46300   Biso      1.000     C          -0.03361  
         C34       1.0000    0.07250   0.04720   0.43300   Biso      1.000     C          -0.028385           
         C35       1.0000    0.14720   0.10970   0.36470   Biso      1.000     C          0.677303  
         C36       1.0000    0.24590   0.40330   0.37400   Biso      1.000     C          0.632821  
         C37       1.0000    0.32610   0.58580   0.65000   Biso      1.000     C          0.636432  
         C38       1.0000    0.42440   0.54200   0.57360   Biso      1.000     C          -0.005355           
         C39       1.0000    0.69070   0.50690   0.48830   Biso      1.000     C          -0.118885           
         C40       1.0000    0.38140   0.45120   0.43800   Biso      1.000     C          -0.033271           
         Er1       1.0000    0.02014   0.67741   0.74657   Biso      1.000     Er          2.102566  
         Er2       1.0000    0.52014   0.82259   0.75343   Biso      1.000     Er          2.102566  
         Er3       1.0000    0.97986   0.32259   0.25343   Biso      1.000     Er          2.102566  
         Er4       1.0000    0.47986   0.17741   0.24657   Biso      1.000     Er          2.102566  
         H1        1.0000    0.34830   0.33550   0.04970   Biso      1.000     H          0.137279  
         H2        1.0000    0.45610   0.18050   0.55950   Biso      1.000     H          0.430521  
         H3        1.0000    0.18060   0.48850   0.52000   Biso      1.000     H          0.137485  
         H4        1.0000    0.15170   0.83550   0.54970   Biso      1.000     H          0.137278  
         H5        1.0000    0.95610   0.31950   0.94050   Biso      1.000     H          0.430521  
         H6        1.0000    0.31940   0.98850   0.02000   Biso      1.000     H          0.137485  
         H7        1.0000    0.65170   0.66450   0.95030   Biso      1.000     H          0.137279  
         H8        1.0000    0.54390   0.81950   0.44050   Biso      1.000     H          0.430521  
         H9        1.0000    0.81940   0.51150   0.48000   Biso      1.000     H          0.137485  
         H10       1.0000    0.84830   0.16450   0.45030   Biso      1.000     H          0.137278  
         H11       1.0000    0.04390   0.68050   0.05950   Biso      1.000     H          0.430521  
         H12       1.0000    0.68060   0.01150   0.98000   Biso      1.000     H          0.137485  
         O1        1.0000    0.69220   0.29620   0.32841   Biso      1.000     O          -0.766027           
         O2        1.0000    0.07580   0.41290   0.38550   Biso      1.000     O          -0.573349           
         O3        1.0000    0.30960   0.35370   0.30689   Biso      1.000     O          -0.753663           
         O4        1.0000    0.02800   0.15520   0.32310   Biso      1.000     O          -0.663397           
         O5        1.0000    0.32220   0.11420   0.35518   Biso      1.000     O          -0.687867           
         O6        1.0000    0.32210   0.84780   0.34960   Biso      1.000     O          -0.494557           
         O7        1.0000    0.25720   0.00660   0.18556   Biso      1.000     O          -0.561457           
         O8        1.0000    0.19220   0.20380   0.17159   Biso      1.000     O          -0.766027           
         O9        1.0000    0.57580   0.08710   0.11450   Biso      1.000     O          -0.573348           
         O10       1.0000    0.80960   0.14630   0.19311   Biso      1.000     O          -0.753663           
         O11       1.0000    0.52800   0.34480   0.17690   Biso      1.000     O          -0.663396           
         O12       1.0000    0.75720   0.49340   0.31444   Biso      1.000     O          -0.561457           
         O13       1.0000    0.82220   0.38580   0.14482   Biso      1.000     O          -0.687868           
         O14       1.0000    0.45610   0.85120   0.46700   Biso      1.000     O          -0.511945           
         O15       1.0000    0.04390   0.35120   0.96700   Biso      1.000     O          -0.511945           
         O16       1.0000    0.74280   0.99340   0.81444   Biso      1.000     O          -0.561457           
         O17       1.0000    0.17780   0.61420   0.85518   Biso      1.000     O          -0.687867           
         O18       1.0000    0.47200   0.65520   0.82310   Biso      1.000     O          -0.663397           
         O19       1.0000    0.19040   0.85370   0.80689   Biso      1.000     O          -0.753663           
         O20       1.0000    0.42420   0.91290   0.88550   Biso      1.000     O          -0.573348           
         O21       1.0000    0.80780   0.79620   0.82841   Biso      1.000     O          -0.766027           
         O22       1.0000    0.54390   0.14880   0.53300   Biso      1.000     O          -0.511946           
         O23       1.0000    0.67790   0.15220   0.65040   Biso      1.000     O          -0.494557           
         O24       1.0000    0.67780   0.88580   0.64482   Biso      1.000     O          -0.687868           
         O25       1.0000    0.97200   0.84480   0.67690   Biso      1.000     O          -0.663396           
         O26       1.0000    0.69040   0.64630   0.69311   Biso      1.000     O          -0.753663           
         O27       1.0000    0.92420   0.58710   0.61450   Biso      1.000     O          -0.573348           
         O28       1.0000    0.30780   0.70380   0.67159   Biso      1.000     O          -0.766027           
         O29       1.0000    0.24280   0.50660   0.68556   Biso      1.000     O          -0.561457           
         O30       1.0000    0.82210   0.65220   0.15040   Biso      1.000     O          -0.494557           
         O31       1.0000    0.17790   0.34780   0.84960   Biso      1.000     O          -0.494558           
         O32       1.0000    0.95610   0.64880   0.03300   Biso      1.000     O          -0.511945 