
##########################################################################
#               Crystallographic Information Format file
#               Produced by PyCifRW module
#
#  This is a CIF file.  CIF has been adopted by the International
#  Union of Crystallography as the standard for data archiving and
#  transmission.
#
#  For information on this file format, follow the CIF links at
#  http://www.iucr.org
##########################################################################

data_image0

_cell_length_a                          10.0936
_cell_length_b                          12.5108
_cell_length_c                          15.1721
_cell_angle_alpha                       90
_cell_angle_beta                        90
_cell_angle_gamma                       90
_symmetry_space_group_name_H-M          'P 1'
_symmetry_int_tables_number             1
loop_
  _symmetry_equiv_pos_as_xyz
         'x, y, z' 
loop_
  _atom_site_label
  _atom_site_occupancy
  _atom_site_fract_x
  _atom_site_fract_y
  _atom_site_fract_z
  _atom_site_thermal_displace_type
  _atom_site_B_iso_or_equiv
  _atom_site_type_symbol
  _atom_site_charge
         C1        1.0000    0.22100   0.50960   0.59450   Biso      1.000     C          0.560878  
         C2        1.0000    0.22100   0.99040   0.09450   Biso      1.000     C          0.560878  
         C3        1.0000    0.08480   0.94650   0.12448   Biso      1.000     C          -0.018807           
         C4        1.0000    0.07630   0.74890   0.08840   Biso      1.000     C          0.097831  
         C5        1.0000    0.93590   0.76010   0.98760   Biso      1.000     C          0.138204  
         C6        1.0000    0.33500   0.11610   0.84060   Biso      1.000     C          0.143316  
         C7        1.0000    0.48390   0.02400   0.78110   Biso      1.000     C          0.12095299999999999           
         C8        1.0000    0.27900   0.00960   0.59450   Biso      1.000     C          0.560879  
         C9        1.0000    0.41520   0.05350   0.62448   Biso      1.000     C          -0.018807           
         C10       1.0000    0.42370   0.25110   0.58840   Biso      1.000     C          0.097831  
         C11       1.0000    0.01610   0.97600   0.28110   Biso      1.000     C          0.12095299999999999           
         C12       1.0000    0.56410   0.23990   0.48760   Biso      1.000     C          0.138204  
         C13       1.0000    0.98390   0.47600   0.21890   Biso      1.000     C          0.12095299999999999           
         C14       1.0000    0.77900   0.49040   0.40550   Biso      1.000     C          0.560878  
         C15       1.0000    0.91520   0.44650   0.37552   Biso      1.000     C          -0.018807           
         C16       1.0000    0.92370   0.24890   0.41160   Biso      1.000     C          0.097831  
         C17       1.0000    0.06410   0.26010   0.51240   Biso      1.000     C          0.138203  
         C18       1.0000    0.66500   0.61610   0.65940   Biso      1.000     C          0.143315  
         C19       1.0000    0.51610   0.52400   0.71890   Biso      1.000     C          0.12095399999999999           
         C20       1.0000    0.43590   0.73990   0.01240   Biso      1.000     C          0.138204  
         C21       1.0000    0.57630   0.75110   0.91160   Biso      1.000     C          0.097831  
         C22       1.0000    0.83500   0.38390   0.15940   Biso      1.000     C          0.143316  
         C23       1.0000    0.16500   0.88390   0.34060   Biso      1.000     C          0.143316  
         C24       1.0000    0.56410   0.26010   0.98760   Biso      1.000     C          0.138204  
         C25       1.0000    0.42370   0.24890   0.08840   Biso      1.000     C          0.09783   
         C26       1.0000    0.83500   0.11610   0.65940   Biso      1.000     C          0.143315  
         C27       1.0000    0.98390   0.02400   0.71890   Biso      1.000     C          0.12095399999999999           
         C28       1.0000    0.77900   0.00960   0.90550   Biso      1.000     C          0.560879  
         C29       1.0000    0.91520   0.05350   0.87552   Biso      1.000     C          -0.018806           
         C30       1.0000    0.92370   0.25110   0.91160   Biso      1.000     C          0.097831  
         C31       1.0000    0.06410   0.23990   0.01240   Biso      1.000     C          0.138203  
         C32       1.0000    0.66500   0.88390   0.15940   Biso      1.000     C          0.143314  
         C33       1.0000    0.51610   0.97600   0.21890   Biso      1.000     C          0.12095399999999999           
         C34       1.0000    0.72100   0.99040   0.40550   Biso      1.000     C          0.560878  
         C35       1.0000    0.58480   0.94650   0.37552   Biso      1.000     C          -0.018806           
         C36       1.0000    0.57630   0.74890   0.41160   Biso      1.000     C          0.097831  
         C37       1.0000    0.43590   0.76010   0.51240   Biso      1.000     C          0.138203  
         C38       1.0000    0.16500   0.61610   0.84060   Biso      1.000     C          0.143316  
         C39       1.0000    0.01610   0.52400   0.78110   Biso      1.000     C          0.12095299999999999           
         C40       1.0000    0.08480   0.55350   0.62448   Biso      1.000     C          -0.018807           
         C41       1.0000    0.07630   0.75110   0.58840   Biso      1.000     C          0.097831  
         C42       1.0000    0.93590   0.73990   0.48760   Biso      1.000     C          0.138203  
         C43       1.0000    0.33500   0.38390   0.34060   Biso      1.000     C          0.143315  
         C44       1.0000    0.48390   0.47600   0.28110   Biso      1.000     C          0.12095399999999999           
         C45       1.0000    0.27900   0.49040   0.09450   Biso      1.000     C          0.560878  
         C46       1.0000    0.41520   0.44650   0.12448   Biso      1.000     C          -0.018807           
         C47       1.0000    0.58480   0.55350   0.87552   Biso      1.000     C          -0.018807           
         C48       1.0000    0.72100   0.50960   0.90550   Biso      1.000     C          0.560879  
         Cd1       1.0000    0.00000   0.50000   0.00000   Biso      1.000     Cd          0.8297059999999999  
         Cd2       1.0000    0.50000   0.50000   0.50000   Biso      1.000     Cd          0.8297059999999999  
         Cd3       1.0000    0.00000   0.00000   0.50000   Biso      1.000     Cd          0.8297059999999999  
         Cd4       1.0000    0.50000   0.00000   0.00000   Biso      1.000     Cd          0.8297059999999999  
         H1        1.0000    0.05580   0.97920   0.72920   Biso      1.000     H          0.123017  
         H2        1.0000    0.28410   0.14890   0.88400   Biso      1.000     H          0.10294   
         H3        1.0000    0.55580   0.97920   0.77080   Biso      1.000     H          0.123017  
         H4        1.0000    0.48130   0.99800   0.61260   Biso      1.000     H          0.11543699999999998           
         H5        1.0000    0.36250   0.27620   0.62930   Biso      1.000     H          0.1151    
         H6        1.0000    0.62110   0.25930   0.44210   Biso      1.000     H          0.10299100000000001           
         H7        1.0000    0.78410   0.35110   0.11600   Biso      1.000     H          0.10294   
         H8        1.0000    0.05580   0.52080   0.22920   Biso      1.000     H          0.123017  
         H9        1.0000    0.12110   0.24070   0.55790   Biso      1.000     H          0.10299200000000001           
         H10       1.0000    0.87890   0.74070   0.94210   Biso      1.000     H          0.10299100000000001           
         H11       1.0000    0.71590   0.64890   0.61600   Biso      1.000     H          0.10294   
         H12       1.0000    0.44420   0.47920   0.72920   Biso      1.000     H          0.123017  
         H13       1.0000    0.51870   0.49800   0.88740   Biso      1.000     H          0.11543699999999998           
         H14       1.0000    0.63750   0.77620   0.87070   Biso      1.000     H          0.1151    
         H15       1.0000    0.37890   0.75930   0.05790   Biso      1.000     H          0.10299100000000001           
         H16       1.0000    0.78410   0.14890   0.61600   Biso      1.000     H          0.10294   
         H17       1.0000    0.98130   0.50200   0.38740   Biso      1.000     H          0.11543699999999998           
         H18       1.0000    0.13750   0.72380   0.12930   Biso      1.000     H          0.1151    
         H19       1.0000    0.86250   0.22380   0.37070   Biso      1.000     H          0.1151    
         H20       1.0000    0.94420   0.02080   0.27080   Biso      1.000     H          0.123017  
         H21       1.0000    0.01870   0.00200   0.11260   Biso      1.000     H          0.11543699999999998           
         H22       1.0000    0.86250   0.27620   0.87070   Biso      1.000     H          0.1151    
         H23       1.0000    0.12110   0.25930   0.05790   Biso      1.000     H          0.10299100000000001           
         H24       1.0000    0.71590   0.85110   0.11600   Biso      1.000     H          0.10294   
         H25       1.0000    0.44420   0.02080   0.22920   Biso      1.000     H          0.123017  
         H26       1.0000    0.51870   0.00200   0.38740   Biso      1.000     H          0.11543699999999998           
         H27       1.0000    0.37890   0.74070   0.55790   Biso      1.000     H          0.10299100000000001           
         H28       1.0000    0.21590   0.64890   0.88400   Biso      1.000     H          0.10294   
         H29       1.0000    0.94420   0.47920   0.77080   Biso      1.000     H          0.123017  
         H30       1.0000    0.63750   0.72380   0.37070   Biso      1.000     H          0.1151    
         H31       1.0000    0.98130   0.99800   0.88740   Biso      1.000     H          0.11543699999999998           
         H32       1.0000    0.13750   0.77620   0.62930   Biso      1.000     H          0.1151    
         H33       1.0000    0.87890   0.75930   0.44210   Biso      1.000     H          0.10299100000000001           
         H34       1.0000    0.28410   0.35110   0.38400   Biso      1.000     H          0.10294   
         H35       1.0000    0.55580   0.52080   0.27080   Biso      1.000     H          0.123017  
         H36       1.0000    0.48130   0.50200   0.11260   Biso      1.000     H          0.11543699999999998           
         H37       1.0000    0.36250   0.22380   0.12930   Biso      1.000     H          0.1151    
         H38       1.0000    0.62110   0.24070   0.94210   Biso      1.000     H          0.10299100000000001           
         H39       1.0000    0.01870   0.49800   0.61260   Biso      1.000     H          0.11543699999999998           
         H40       1.0000    0.21590   0.85110   0.38400   Biso      1.000     H          0.10294   
         N1        1.0000    0.06080   0.55100   0.85944   Biso      1.000     N          -0.293111           
         N2        1.0000    0.18740   0.62880   0.75654   Biso      1.000     N          -0.25558800000000004          
         N3        1.0000    0.08850   0.56983   0.71923   Biso      1.000     N          0.10635499999999999           
         N4        1.0000    0.01230   0.81180   0.53100   Biso      1.000     N          -0.306676           
         N5        1.0000    0.41150   0.43017   0.21923   Biso      1.000     N          0.106342  
         N6        1.0000    0.04110   0.65044   0.57968   Biso      1.000     N          0.14006300000000002           
         N7        1.0000    0.43920   0.44900   0.35944   Biso      1.000     N          -0.293111           
         N8        1.0000    0.48770   0.18820   0.03100   Biso      1.000     N          -0.306676           
         N9        1.0000    0.54110   0.84956   0.42032   Biso      1.000     N          0.14006300000000002           
         N10       1.0000    0.94870   0.64120   0.51464   Biso      1.000     N          -0.257772           
         N11       1.0000    0.31260   0.37120   0.25654   Biso      1.000     N          -0.255577           
         N12       1.0000    0.91150   0.06983   0.78077   Biso      1.000     N          0.106342  
         N13       1.0000    0.51230   0.68820   0.46900   Biso      1.000     N          -0.306676           
         N14       1.0000    0.58850   0.93017   0.28077   Biso      1.000     N          0.106342  
         N15       1.0000    0.68740   0.87120   0.24346   Biso      1.000     N          -0.255577           
         N16       1.0000    0.56080   0.94900   0.14056   Biso      1.000     N          -0.293111           
         N17       1.0000    0.95890   0.15044   0.92032   Biso      1.000     N          0.14006300000000002           
         N18       1.0000    0.05130   0.14120   0.98536   Biso      1.000     N          -0.257772           
         N19       1.0000    0.98770   0.31180   0.96900   Biso      1.000     N          -0.306676           
         N20       1.0000    0.81260   0.12880   0.74346   Biso      1.000     N          -0.255577           
         N21       1.0000    0.55130   0.35880   0.01464   Biso      1.000     N          -0.257776           
         N22       1.0000    0.93920   0.05100   0.64056   Biso      1.000     N          -0.293111           
         N23       1.0000    0.44870   0.85880   0.48536   Biso      1.000     N          -0.257772           
         N24       1.0000    0.45890   0.34956   0.07968   Biso      1.000     N          0.140068  
         N25       1.0000    0.81260   0.37120   0.24346   Biso      1.000     N          -0.25558800000000004          
         N26       1.0000    0.18740   0.87120   0.25654   Biso      1.000     N          -0.25558800000000004          
         N27       1.0000    0.54110   0.65044   0.92032   Biso      1.000     N          0.14006300000000002           
         N28       1.0000    0.44870   0.64120   0.98536   Biso      1.000     N          -0.257772           
         N29       1.0000    0.06080   0.94900   0.35944   Biso      1.000     N          -0.293111           
         N30       1.0000    0.58850   0.56983   0.78077   Biso      1.000     N          0.106342  
         N31       1.0000    0.68740   0.62880   0.74346   Biso      1.000     N          -0.255577           
         N32       1.0000    0.56080   0.55100   0.64056   Biso      1.000     N          -0.293111           
         N33       1.0000    0.95890   0.34956   0.42032   Biso      1.000     N          0.14006300000000002           
         N34       1.0000    0.05130   0.35880   0.48536   Biso      1.000     N          -0.257772           
         N35       1.0000    0.98770   0.18820   0.46900   Biso      1.000     N          -0.306676           
         N36       1.0000    0.91150   0.43017   0.28077   Biso      1.000     N          0.10635399999999999           
         N37       1.0000    0.51230   0.81180   0.96900   Biso      1.000     N          -0.306676           
         N38       1.0000    0.45890   0.15044   0.57968   Biso      1.000     N          0.14006300000000002           
         N39       1.0000    0.93920   0.44900   0.14056   Biso      1.000     N          -0.293111           
         N40       1.0000    0.08850   0.93017   0.21923   Biso      1.000     N          0.10635399999999999           
         N41       1.0000    0.94870   0.85880   0.01464   Biso      1.000     N          -0.257776           
         N42       1.0000    0.04110   0.84956   0.07968   Biso      1.000     N          0.140067  
         N43       1.0000    0.01230   0.68820   0.03100   Biso      1.000     N          -0.306676           
         N44       1.0000    0.31260   0.12880   0.75654   Biso      1.000     N          -0.25558800000000004          
         N45       1.0000    0.41150   0.06983   0.71923   Biso      1.000     N          0.10635499999999999           
         N46       1.0000    0.48770   0.31180   0.53100   Biso      1.000     N          -0.306676           
         N47       1.0000    0.55130   0.14120   0.51464   Biso      1.000     N          -0.257772           
         N48       1.0000    0.43920   0.05100   0.85944   Biso      1.000     N          -0.293111           
         O1        1.0000    0.22240   0.44711   0.03088   Biso      1.000     O          -0.5718840000000001           
         O2        1.0000    0.75930   0.06712   0.36127   Biso      1.000     O          -0.5781   
         O3        1.0000    0.77760   0.94711   0.46912   Biso      1.000     O          -0.5718840000000001           
         O4        1.0000    0.25930   0.43288   0.63873   Biso      1.000     O          -0.5781   
         O5        1.0000    0.27760   0.55289   0.53088   Biso      1.000     O          -0.5718840000000001           
         O6        1.0000    0.24070   0.56712   0.13873   Biso      1.000     O          -0.5781   
         O7        1.0000    0.25930   0.06712   0.13873   Biso      1.000     O          -0.5781   
         O8        1.0000    0.72240   0.44711   0.46912   Biso      1.000     O          -0.5718840000000001           
         O9        1.0000    0.24070   0.93288   0.63873   Biso      1.000     O          -0.5781   
         O10       1.0000    0.22240   0.05289   0.53088   Biso      1.000     O          -0.5718840000000001           
         O11       1.0000    0.74070   0.56712   0.36127   Biso      1.000     O          -0.5781   
         O12       1.0000    0.75930   0.43288   0.86127   Biso      1.000     O          -0.5781   
         O13       1.0000    0.77760   0.55289   0.96912   Biso      1.000     O          -0.5718840000000001           
         O14       1.0000    0.72240   0.05289   0.96912   Biso      1.000     O          -0.5718840000000001           
         O15       1.0000    0.27760   0.94711   0.03088   Biso      1.000     O          -0.5718840000000001           
         O16       1.0000    0.74070   0.93288   0.86127   Biso      1.000     O          -0.5781 