
##########################################################################
#               Crystallographic Information Format file
#               Produced by PyCifRW module
#
#  This is a CIF file.  CIF has been adopted by the International
#  Union of Crystallography as the standard for data archiving and
#  transmission.
#
#  For information on this file format, follow the CIF links at
#  http://www.iucr.org
##########################################################################

data_image0

_cell_length_a                          11.419
_cell_length_b                          20.293
_cell_length_c                          20.293
_cell_angle_alpha                       75.4377
_cell_angle_beta                        73.659
_cell_angle_gamma                       73.659
_symmetry_space_group_name_H-M          'P 1'
_symmetry_int_tables_number             1
loop_
  _symmetry_equiv_pos_as_xyz
         'x, y, z' 
loop_
  _atom_site_label
  _atom_site_occupancy
  _atom_site_fract_x
  _atom_site_fract_y
  _atom_site_fract_z
  _atom_site_thermal_displace_type
  _atom_site_B_iso_or_equiv
  _atom_site_type_symbol
  _atom_site_charge
         C1        1.0000    0.07908   0.84658   0.67066   Biso      1.000     C          -0.072452           
         C2        1.0000    0.92092   0.15342   0.32934   Biso      1.000     C          -0.072422           
         C3        1.0000    0.20752   0.88862   0.72794   Biso      1.000     C          0.087606  
         C4        1.0000    0.33742   0.96334   0.61642   Biso      1.000     C          0.017097  
         C5        1.0000    0.60807   0.11728   0.47638   Biso      1.000     C          0.050151  
         C6        1.0000    0.07531   0.04720   0.86478   Biso      1.000     C          0.07787   
         C7        1.0000    0.97252   0.13556   0.77300   Biso      1.000     C          0.000379  
         C8        1.0000    0.22030   0.12819   0.75881   Biso      1.000     C          0.065156  
         C9        1.0000    0.09652   0.59651   0.14125   Biso      1.000     C          0.253187  
         C10       1.0000    0.98981   0.52092   0.22046   Biso      1.000     C          0.172096  
         C11       1.0000    0.06467   0.22044   0.51822   Biso      1.000     C          0.175685  
         C12       1.0000    0.09090   0.49219   0.24921   Biso      1.000     C          -0.133695           
         C13       1.0000    0.59632   0.32934   0.15342   Biso      1.000     C          -0.072943           
         C14       1.0000    0.17592   0.72794   0.88862   Biso      1.000     C          0.086209  
         C15       1.0000    0.08282   0.61642   0.96334   Biso      1.000     C          0.017215  
         C16       1.0000    0.79827   0.47638   0.11728   Biso      1.000     C          0.048566  
         C17       1.0000    0.01271   0.86478   0.04720   Biso      1.000     C          0.077133  
         C18       1.0000    0.11892   0.77300   0.13556   Biso      1.000     C          0.002161  
         C19       1.0000    0.89270   0.75881   0.12819   Biso      1.000     C          0.065303  
         C20       1.0000    0.10730   0.24119   0.87181   Biso      1.000     C          0.06534   
         C21       1.0000    0.88108   0.22700   0.86444   Biso      1.000     C          0.002224  
         C22       1.0000    0.19667   0.51822   0.22044   Biso      1.000     C          0.175356  
         C23       1.0000    0.98729   0.13522   0.95280   Biso      1.000     C          0.077126  
         C24       1.0000    0.16770   0.24921   0.49219   Biso      1.000     C          -0.133496           
         C25       1.0000    0.16572   0.14125   0.59651   Biso      1.000     C          0.253184  
         C26       1.0000    0.33230   0.00781   0.25079   Biso      1.000     C          -0.1335   
         C27       1.0000    0.43533   0.98178   0.27956   Biso      1.000     C          0.175667  
         C28       1.0000    0.57908   0.17066   0.34658   Biso      1.000     C          -0.072424           
         C29       1.0000    0.29248   0.77206   0.61138   Biso      1.000     C          0.087654  
         C30       1.0000    0.16258   0.88358   0.53666   Biso      1.000     C          0.017058  
         C31       1.0000    0.89193   0.02362   0.38272   Biso      1.000     C          0.050105  
         C32       1.0000    0.42469   0.63522   0.45280   Biso      1.000     C          0.077914  
         C33       1.0000    0.52748   0.72700   0.36444   Biso      1.000     C          0.000464  
         C34       1.0000    0.27970   0.74119   0.37181   Biso      1.000     C          0.065141  
         C35       1.0000    0.26881   0.22046   0.52092   Biso      1.000     C          0.171591  
         C36       1.0000    0.40348   0.35875   0.90349   Biso      1.000     C          0.253181  
         C37       1.0000    0.40910   0.25079   0.00781   Biso      1.000     C          -0.133766           
         C38       1.0000    0.30333   0.27956   0.98178   Biso      1.000     C          0.175265  
         C39       1.0000    0.90368   0.34658   0.17066   Biso      1.000     C          -0.073112           
         C40       1.0000    0.32408   0.61138   0.77206   Biso      1.000     C          0.086163  
         C41       1.0000    0.41718   0.53666   0.88358   Biso      1.000     C          0.016944  
         C42       1.0000    0.70173   0.38272   0.02362   Biso      1.000     C          0.048598  
         C43       1.0000    0.48729   0.45280   0.63522   Biso      1.000     C          0.077287  
         C44       1.0000    0.38108   0.36444   0.72700   Biso      1.000     C          0.002561  
         C45       1.0000    0.60730   0.37181   0.74119   Biso      1.000     C          0.065277  
         C46       1.0000    0.51019   0.27954   0.97908   Biso      1.000     C          0.172136  
         C47       1.0000    0.20173   0.52362   0.88272   Biso      1.000     C          0.048574  
         C48       1.0000    0.91718   0.38358   0.03666   Biso      1.000     C          0.017193  
         C49       1.0000    0.82408   0.27206   0.11138   Biso      1.000     C          0.086186  
         C50       1.0000    0.59652   0.64125   0.09651   Biso      1.000     C          0.253198  
         C51       1.0000    0.72030   0.25881   0.62819   Biso      1.000     C          0.065189  
         C52       1.0000    0.47252   0.27300   0.63556   Biso      1.000     C          2.9e-05   
         C53       1.0000    0.57531   0.36478   0.54720   Biso      1.000     C          0.077782  
         C54       1.0000    0.10807   0.97638   0.61728   Biso      1.000     C          0.050305  
         C55       1.0000    0.83742   0.11642   0.46334   Biso      1.000     C          0.017317  
         C56       1.0000    0.70752   0.22794   0.38862   Biso      1.000     C          0.087571  
         C57       1.0000    0.42092   0.82934   0.65342   Biso      1.000     C          -0.072455           
         C58       1.0000    0.56467   0.01822   0.72044   Biso      1.000     C          0.175786  
         C59       1.0000    0.48981   0.72046   0.02092   Biso      1.000     C          0.172136  
         C60       1.0000    0.66770   0.99219   0.74921   Biso      1.000     C          -0.133407           
         C61       1.0000    0.66572   0.09651   0.64125   Biso      1.000     C          0.253179  
         C62       1.0000    0.77620   0.88790   0.11210   Biso      1.000     C          -0.056237           
         C63       1.0000    0.93650   0.75460   0.24540   Biso      1.000     C          -0.032521           
         C64       1.0000    0.22380   0.11210   0.88790   Biso      1.000     C          -0.056123           
         C65       1.0000    0.06350   0.24540   0.75460   Biso      1.000     C          -0.032577           
         C66       1.0000    0.72380   0.38790   0.61210   Biso      1.000     C          -0.056131           
         C67       1.0000    0.56350   0.25460   0.74540   Biso      1.000     C          -0.032578           
         C68       1.0000    0.27620   0.61210   0.38790   Biso      1.000     C          -0.056016           
         C69       1.0000    0.43650   0.74540   0.25460   Biso      1.000     C          -0.032634           
         C70       1.0000    0.76881   0.02092   0.72046   Biso      1.000     C          0.171602  
         C71       1.0000    0.59090   0.74921   0.99219   Biso      1.000     C          -0.133735           
         C72       1.0000    0.69667   0.72044   0.01822   Biso      1.000     C          0.175257  
         C73       1.0000    0.09632   0.65342   0.82934   Biso      1.000     C          -0.073111           
         C74       1.0000    0.40368   0.67066   0.84658   Biso      1.000     C          -0.072944           
         C75       1.0000    0.80333   0.48178   0.77956   Biso      1.000     C          0.175348  
         C76       1.0000    0.90910   0.50781   0.75079   Biso      1.000     C          -0.133686           
         C77       1.0000    0.01019   0.47908   0.77954   Biso      1.000     C          0.172128  
         C78       1.0000    0.90348   0.40349   0.85875   Biso      1.000     C          0.253205  
         C79       1.0000    0.77970   0.87181   0.24119   Biso      1.000     C          0.065218  
         C80       1.0000    0.02748   0.86444   0.22700   Biso      1.000     C          -4.7e-05  
         C81       1.0000    0.92469   0.95280   0.13522   Biso      1.000     C          0.077756  
         C82       1.0000    0.39193   0.88272   0.52362   Biso      1.000     C          0.050352  
         C83       1.0000    0.66258   0.03666   0.38358   Biso      1.000     C          0.017354  
         C84       1.0000    0.79248   0.11138   0.27206   Biso      1.000     C          0.087535  
         C85       1.0000    0.93533   0.77956   0.48178   Biso      1.000     C          0.175805  
         C86       1.0000    0.83230   0.75079   0.50781   Biso      1.000     C          -0.133415           
         C87       1.0000    0.73119   0.77954   0.47908   Biso      1.000     C          0.171586  
         C88       1.0000    0.83428   0.85875   0.40349   Biso      1.000     C          0.253157  
         C89       1.0000    0.39270   0.62819   0.25881   Biso      1.000     C          0.065316  
         C90       1.0000    0.61892   0.63556   0.27300   Biso      1.000     C          0.002629  
         C91       1.0000    0.51271   0.54720   0.36478   Biso      1.000     C          0.077277  
         C92       1.0000    0.29827   0.61728   0.97638   Biso      1.000     C          0.048596  
         C93       1.0000    0.58282   0.46334   0.11642   Biso      1.000     C          0.016918  
         C94       1.0000    0.67592   0.38862   0.22794   Biso      1.000     C          0.086133  
         C95       1.0000    0.23119   0.97908   0.27954   Biso      1.000     C          0.171606  
         C96       1.0000    0.33428   0.90349   0.35875   Biso      1.000     C          0.253212  
         Cu1       1.0000    0.84803   0.61952   0.11656   Biso      1.000     Cu          0.759936  
         Cu2       1.0000    0.38650   0.61350   0.61350   Biso      1.000     Cu          0.8871    
         Cu3       1.0000    0.61350   0.38650   0.38650   Biso      1.000     Cu          0.887077  
         Cu4       1.0000    0.88650   0.11350   0.11350   Biso      1.000     Cu          0.88685   
         Cu5       1.0000    0.91589   0.11952   0.61656   Biso      1.000     Cu          0.760824  
         Cu6       1.0000    0.34803   0.61656   0.11952   Biso      1.000     Cu          0.75923   
         Cu7       1.0000    0.11350   0.88650   0.88650   Biso      1.000     Cu          0.886838  
         Cu8       1.0000    0.15197   0.38048   0.88344   Biso      1.000     Cu          0.75995   
         Cu9       1.0000    0.08411   0.88048   0.38344   Biso      1.000     Cu          0.760018  
         Cu10      1.0000    0.65197   0.38344   0.88048   Biso      1.000     Cu          0.759212  
         Cu11      1.0000    0.41589   0.11656   0.61952   Biso      1.000     Cu          0.760113  
         Cu12      1.0000    0.58411   0.88344   0.38048   Biso      1.000     Cu          0.760911  
         H1        1.0000    0.16490   0.10270   0.63450   Biso      1.000     H          0.082896  
         H2        1.0000    0.50660   0.00170   0.26050   Biso      1.000     H          0.11599   
         H3        1.0000    0.40210   0.39730   0.86550   Biso      1.000     H          0.082957  
         H4        1.0000    0.58400   0.26040   0.99660   Biso      1.000     H          0.112309  
         H5        1.0000    0.41140   0.21170   0.04530   Biso      1.000     H          0.152137  
         H6        1.0000    0.34100   0.23960   0.50340   Biso      1.000     H          0.112322  
         H7        1.0000    0.08860   0.45470   0.28830   Biso      1.000     H          0.152169  
         H8        1.0000    0.99340   0.23950   0.49830   Biso      1.000     H          0.116002  
         H9        1.0000    0.09790   0.63450   0.10270   Biso      1.000     H          0.082987  
         H10       1.0000    0.91600   0.50340   0.23960   Biso      1.000     H          0.112327  
         H11       1.0000    0.33160   0.04530   0.21170   Biso      1.000     H          0.151481  
         H12       1.0000    0.26880   0.49830   0.23950   Biso      1.000     H          0.116729  
         H13       1.0000    0.16840   0.28830   0.45470   Biso      1.000     H          0.151494  
         H14       1.0000    0.15900   0.99660   0.26040   Biso      1.000     H          0.112314  
         H15       1.0000    0.23120   0.26050   0.00170   Biso      1.000     H          0.116696  
         H16       1.0000    0.73120   0.50170   0.76050   Biso      1.000     H          0.116731  
         H17       1.0000    0.33510   0.86550   0.39730   Biso      1.000     H          0.082899  
         H18       1.0000    0.84100   0.00340   0.73960   Biso      1.000     H          0.112357  
         H19       1.0000    0.66840   0.95470   0.78830   Biso      1.000     H          0.151544  
         H20       1.0000    0.49340   0.99830   0.73950   Biso      1.000     H          0.116059  
         H21       1.0000    0.59790   0.60270   0.13450   Biso      1.000     H          0.082958  
         H22       1.0000    0.41600   0.73960   0.00340   Biso      1.000     H          0.112309  
         H23       1.0000    0.58860   0.78830   0.95470   Biso      1.000     H          0.152132  
         H24       1.0000    0.76880   0.73950   0.99830   Biso      1.000     H          0.116681  
         H25       1.0000    0.66490   0.13450   0.60270   Biso      1.000     H          0.082915  
         H26       1.0000    0.65900   0.76040   0.49660   Biso      1.000     H          0.112351  
         H27       1.0000    0.83160   0.71170   0.54530   Biso      1.000     H          0.151534  
         H28       1.0000    0.00660   0.76050   0.50170   Biso      1.000     H          0.116055  
         H29       1.0000    0.90210   0.36550   0.89730   Biso      1.000     H          0.082993  
         H30       1.0000    0.08400   0.49660   0.76040   Biso      1.000     H          0.112338  
         H31       1.0000    0.91140   0.54530   0.71170   Biso      1.000     H          0.152191  
         H32       1.0000    0.83510   0.89730   0.36550   Biso      1.000     H          0.082904  
         N1        1.0000    0.80079   0.42888   0.83394   Biso      1.000     N          -0.222265           
         N2        1.0000    0.71030   0.62237   0.23223   Biso      1.000     N          -0.340622           
         N3        1.0000    0.37231   0.61555   0.21223   Biso      1.000     N          -0.323872           
         N4        1.0000    0.93639   0.83394   0.42888   Biso      1.000     N          -0.221717           
         N5        1.0000    0.73184   0.83441   0.42651   Biso      1.000     N          -0.216542           
         N6        1.0000    0.98506   0.83124   0.69764   Biso      1.000     N          -0.27825  
         N7        1.0000    0.81803   0.10735   0.21459   Biso      1.000     N          -0.329681           
         N8        1.0000    0.61931   0.99258   0.38320   Biso      1.000     N          -0.345417           
         N9        1.0000    0.46676   0.88149   0.47279   Biso      1.000     N          -0.321659           
         N10       1.0000    0.17896   0.47279   0.88149   Biso      1.000     N          -0.320588           
         N11       1.0000    0.06490   0.87763   0.26777   Biso      1.000     N          -0.338727           
         N12       1.0000    0.94966   0.12390   0.01178   Biso      1.000     N          -0.33483  
         N13       1.0000    0.00491   0.38320   0.99258   Biso      1.000     N          -0.345437           
         N14       1.0000    0.86003   0.21459   0.10735   Biso      1.000     N          -0.328725           
         N15       1.0000    0.48606   0.69764   0.83124   Biso      1.000     N          -0.277743           
         N16       1.0000    0.00724   0.42651   0.83441   Biso      1.000     N          -0.216847           
         N17       1.0000    0.70009   0.88445   0.28777   Biso      1.000     N          -0.322895           
         N18       1.0000    0.55034   0.48822   0.37610   Biso      1.000     N          -0.334766           
         N19       1.0000    0.91466   0.01178   0.12390   Biso      1.000     N          -0.335005           
         N20       1.0000    0.32104   0.61851   0.02721   Biso      1.000     N          -0.321296           
         N21       1.0000    0.18197   0.89265   0.78541   Biso      1.000     N          -0.329962           
         N22       1.0000    0.63997   0.39265   0.28541   Biso      1.000     N          -0.328909           
         N23       1.0000    0.56580   0.20920   0.79080   Biso      1.000     N          -0.297783           
         N24       1.0000    0.80750   0.41230   0.58770   Biso      1.000     N          -0.301698           
         N25       1.0000    0.06580   0.29080   0.70920   Biso      1.000     N          -0.297806           
         N26       1.0000    0.30750   0.08770   0.91230   Biso      1.000     N          -0.301692           
         N27       1.0000    0.93420   0.70920   0.29080   Biso      1.000     N          -0.297408           
         N28       1.0000    0.69250   0.91230   0.08770   Biso      1.000     N          -0.301542           
         N29       1.0000    0.56361   0.07112   0.66606   Biso      1.000     N          -0.221723           
         N30       1.0000    0.78970   0.26777   0.87763   Biso      1.000     N          -0.340566           
         N31       1.0000    0.76816   0.07349   0.66559   Biso      1.000     N          -0.216531           
         N32       1.0000    0.51494   0.80236   0.66876   Biso      1.000     N          -0.278262           
         N33       1.0000    0.68197   0.28541   0.39265   Biso      1.000     N          -0.329664           
         N34       1.0000    0.88069   0.11680   0.50742   Biso      1.000     N          -0.345376           
         N35       1.0000    0.03324   0.02721   0.61851   Biso      1.000     N          -0.321674           
         N36       1.0000    0.58534   0.37610   0.48822   Biso      1.000     N          -0.335133           
         N37       1.0000    0.43510   0.23223   0.62237   Biso      1.000     N          -0.338833           
         N38       1.0000    0.79991   0.21223   0.61555   Biso      1.000     N          -0.323048           
         N39       1.0000    0.69921   0.66606   0.07112   Biso      1.000     N          -0.222691           
         N40       1.0000    0.49276   0.66559   0.07349   Biso      1.000     N          -0.216639           
         N41       1.0000    0.01394   0.66876   0.80236   Biso      1.000     N          -0.277971           
         N42       1.0000    0.49509   0.50742   0.11680   Biso      1.000     N          -0.345168           
         N43       1.0000    0.12769   0.28777   0.88445   Biso      1.000     N          -0.322862           
         N44       1.0000    0.43420   0.79080   0.20920   Biso      1.000     N          -0.298199           
         N45       1.0000    0.23184   0.92651   0.33441   Biso      1.000     N          -0.216346           
         N46       1.0000    0.43639   0.92888   0.33394   Biso      1.000     N          -0.222125           
         N47       1.0000    0.53324   0.11851   0.52721   Biso      1.000     N          -0.322228           
         N48       1.0000    0.08534   0.98822   0.87610   Biso      1.000     N          -0.334906           
         N49       1.0000    0.93510   0.12237   0.73223   Biso      1.000     N          -0.338799           
         N50       1.0000    0.29991   0.11555   0.71223   Biso      1.000     N          -0.3239   
         N51       1.0000    0.19921   0.57112   0.16606   Biso      1.000     N          -0.22225  
         N52       1.0000    0.99276   0.57349   0.16559   Biso      1.000     N          -0.216868           
         N53       1.0000    0.51394   0.30236   0.16876   Biso      1.000     N          -0.277787           
         N54       1.0000    0.13997   0.78541   0.89265   Biso      1.000     N          -0.328718           
         N55       1.0000    0.99509   0.61680   0.00742   Biso      1.000     N          -0.345506           
         N56       1.0000    0.82104   0.52721   0.11851   Biso      1.000     N          -0.32052  
         N57       1.0000    0.05034   0.87610   0.98822   Biso      1.000     N          -0.334704           
         N58       1.0000    0.21030   0.73223   0.12237   Biso      1.000     N          -0.340456           
         N59       1.0000    0.87231   0.71223   0.11555   Biso      1.000     N          -0.322679           
         N60       1.0000    0.19250   0.58770   0.41230   Biso      1.000     N          -0.30189  
         N61       1.0000    0.01494   0.16876   0.30236   Biso      1.000     N          -0.277751           
         N62       1.0000    0.26816   0.16559   0.57349   Biso      1.000     N          -0.216365           
         N63       1.0000    0.38069   0.00742   0.61680   Biso      1.000     N          -0.345347           
         N64       1.0000    0.62769   0.38445   0.78777   Biso      1.000     N          -0.32369  
         N65       1.0000    0.48506   0.19764   0.33124   Biso      1.000     N          -0.277765           
         N66       1.0000    0.31803   0.71459   0.60735   Biso      1.000     N          -0.329939           
         N67       1.0000    0.11931   0.88320   0.49258   Biso      1.000     N          -0.345301           
         N68       1.0000    0.96676   0.97279   0.38149   Biso      1.000     N          -0.322231           
         N69       1.0000    0.06361   0.16606   0.57112   Biso      1.000     N          -0.222127           
         N70       1.0000    0.56490   0.76777   0.37763   Biso      1.000     N          -0.338915           
         N71       1.0000    0.20009   0.78777   0.38445   Biso      1.000     N          -0.324053           
         N72       1.0000    0.30079   0.33394   0.92888   Biso      1.000     N          -0.222679           
         N73       1.0000    0.41466   0.62390   0.51178   Biso      1.000     N          -0.335054           
         N74       1.0000    0.98606   0.33124   0.19764   Biso      1.000     N          -0.278014           
         N75       1.0000    0.36003   0.60735   0.71459   Biso      1.000     N          -0.328916           
         N76       1.0000    0.50491   0.49258   0.88320   Biso      1.000     N          -0.345244           
         N77       1.0000    0.67896   0.38149   0.97279   Biso      1.000     N          -0.321238           
         N78       1.0000    0.44966   0.51178   0.62390   Biso      1.000     N          -0.334628           
         N79       1.0000    0.28970   0.37763   0.76777   Biso      1.000     N          -0.340504           
         N80       1.0000    0.50724   0.33441   0.92651   Biso      1.000     N          -0.216666           
         W1        1.0000    0.25000   0.88029   0.61971   Biso      1.000     W          0.696639  
         W2        1.0000    0.93649   0.84182   0.15818   Biso      1.000     W          0.693898  
         W3        1.0000    0.06351   0.15818   0.84182   Biso      1.000     W          0.69351   
         W4        1.0000    0.56351   0.34182   0.65818   Biso      1.000     W          0.693528  
         W5        1.0000    0.43649   0.65818   0.34182   Biso      1.000     W          0.693097  
         W6        1.0000    0.75000   0.38029   0.11971   Biso      1.000     W          0.700771  
         W7        1.0000    0.75000   0.11971   0.38029   Biso      1.000     W          0.697115  
         W8        1.0000    0.25000   0.61971   0.88029   Biso      1.000     W          0.700696 