
##########################################################################
#               Crystallographic Information Format file
#               Produced by PyCifRW module
#
#  This is a CIF file.  CIF has been adopted by the International
#  Union of Crystallography as the standard for data archiving and
#  transmission.
#
#  For information on this file format, follow the CIF links at
#  http://www.iucr.org
##########################################################################

data_image0

_cell_length_a                          13.0455
_cell_length_b                          13.0455
_cell_length_c                          16.685
_cell_angle_alpha                       109.471
_cell_angle_beta                        109.471
_cell_angle_gamma                       93.7056
_symmetry_space_group_name_H-M          'P 1'
_symmetry_int_tables_number             1
loop_
  _symmetry_equiv_pos_as_xyz
         'x, y, z' 
loop_
  _atom_site_label
  _atom_site_occupancy
  _atom_site_fract_x
  _atom_site_fract_y
  _atom_site_fract_z
  _atom_site_thermal_displace_type
  _atom_site_B_iso_or_equiv
  _atom_site_type_symbol
  _atom_site_charge
         C1        1.0000    0.64990   0.15410   0.98300   Biso      1.000     C          -0.19556400000000002          
         C2        1.0000    0.95895   0.79305   0.01500   Biso      1.000     C          0.160808  
         C3        1.0000    0.02515   0.89685   0.05400   Biso      1.000     C          -0.17690899999999998          
         C4        1.0000    0.86315   0.77785   0.03750   Biso      1.000     C          -0.183764           
         C5        1.0000    0.99975   0.98925   0.11750   Biso      1.000     C          0.049063999999999997          
         C6        1.0000    0.84230   0.87170   0.09900   Biso      1.000     C          0.052463  
         C7        1.0000    0.39410   0.44290   0.46850   Biso      1.000     C          0.089519  
         C8        1.0000    0.98295   0.69605   0.94400   Biso      1.000     C          -0.425806           
         C9        1.0000    0.48535   0.39825   0.50400   Biso      1.000     C          0.07808899999999999           
         C10       1.0000    0.69250   0.40350   0.57300   Biso      1.000     C          -0.202731           
         C11       1.0000    0.72915   0.33985   0.49600   Biso      1.000     C          0.14789000000000002           
         C12       1.0000    0.84590   0.35010   0.51700   Biso      1.000     C          -0.203073           
         C13       1.0000    0.65720   0.27380   0.40800   Biso      1.000     C          -0.19803099999999998          
         C14       1.0000    0.88210   0.28890   0.44600   Biso      1.000     C          0.0572    
         C15       1.0000    0.69595   0.21405   0.33650   Biso      1.000     C          0.038756  
         C16       1.0000    0.59285   0.45315   0.53500   Biso      1.000     C          -0.080171           
         C17       1.0000    0.41080   0.91720   0.45600   Biso      1.000     C          0.094402  
         C18       1.0000    0.99050   0.59650   0.97400   Biso      1.000     C          -0.076182           
         C19       1.0000    0.91720   0.41080   0.95600   Biso      1.000     C          0.111455  
         C20       1.0000    0.20695   0.04105   0.48500   Biso      1.000     C          0.136075  
         C21       1.0000    0.10315   0.97485   0.44600   Biso      1.000     C          -0.176376           
         C22       1.0000    0.22215   0.13685   0.46250   Biso      1.000     C          -0.21201199999999998          
         C23       1.0000    0.01075   0.00025   0.38250   Biso      1.000     C          0.0648    
         C24       1.0000    0.12830   0.15770   0.40100   Biso      1.000     C          0.08042300000000001           
         C25       1.0000    0.55710   0.60590   0.03150   Biso      1.000     C          0.090305  
         C26       1.0000    0.90645   0.50055   0.93200   Biso      1.000     C          0.116497  
         C27       1.0000    0.60175   0.51465   0.99600   Biso      1.000     C          0.079842  
         C28       1.0000    0.59650   0.30750   0.92700   Biso      1.000     C          -0.201721           
         C29       1.0000    0.66015   0.27085   0.00400   Biso      1.000     C          0.148088  
         C30       1.0000    0.49945   0.09355   0.56800   Biso      1.000     C          0.095526  
         C31       1.0000    0.72620   0.34280   0.09200   Biso      1.000     C          -0.200248           
         C32       1.0000    0.71110   0.11790   0.05400   Biso      1.000     C          0.056094000000000005          
         C33       1.0000    0.78595   0.30405   0.16350   Biso      1.000     C          0.049063  
         C34       1.0000    0.54685   0.40715   0.96500   Biso      1.000     C          -0.082697           
         C35       1.0000    0.50055   0.90645   0.43200   Biso      1.000     C          0.096     
         C36       1.0000    0.59650   0.99050   0.47400   Biso      1.000     C          -0.08442899999999999          
         C37       1.0000    0.69605   0.98295   0.44400   Biso      1.000     C          -0.196984           
         C38       1.0000    0.97485   0.10315   0.94600   Biso      1.000     C          -0.180922           
         C39       1.0000    0.13685   0.22215   0.96250   Biso      1.000     C          -0.204788           
         C40       1.0000    0.00025   0.01075   0.88250   Biso      1.000     C          0.081759  
         C41       1.0000    0.15770   0.12830   0.90100   Biso      1.000     C          0.06972   
         C42       1.0000    0.60590   0.55710   0.53150   Biso      1.000     C          0.09521900000000001           
         C43       1.0000    0.51465   0.60175   0.49600   Biso      1.000     C          0.075383  
         C44       1.0000    0.04105   0.20695   0.98500   Biso      1.000     C          0.142214  
         C45       1.0000    0.40715   0.54685   0.46500   Biso      1.000     C          -0.085017           
         C46       1.0000    0.27085   0.66015   0.50400   Biso      1.000     C          0.143688  
         C47       1.0000    0.15410   0.64990   0.48300   Biso      1.000     C          -0.202658           
         C48       1.0000    0.34280   0.72620   0.59200   Biso      1.000     C          -0.196597           
         C49       1.0000    0.11790   0.71110   0.55400   Biso      1.000     C          0.058237  
         C50       1.0000    0.30405   0.78595   0.66350   Biso      1.000     C          0.03707   
         C51       1.0000    0.58920   0.08280   0.54400   Biso      1.000     C          0.094348  
         C52       1.0000    0.30750   0.59650   0.42700   Biso      1.000     C          -0.199882           
         C53       1.0000    0.01705   0.30395   0.05600   Biso      1.000     C          -0.196391           
         C54       1.0000    0.00950   0.40350   0.02600   Biso      1.000     C          -0.080611           
         C55       1.0000    0.09355   0.49945   0.06800   Biso      1.000     C          0.110644  
         C56       1.0000    0.79305   0.95895   0.51500   Biso      1.000     C          0.13275399999999998           
         C57       1.0000    0.89685   0.02515   0.55400   Biso      1.000     C          -0.177874           
         C58       1.0000    0.77785   0.86315   0.53750   Biso      1.000     C          -0.21614099999999997          
         C59       1.0000    0.98925   0.99975   0.61750   Biso      1.000     C          0.053863  
         C60       1.0000    0.87170   0.84230   0.59900   Biso      1.000     C          0.0778    
         C61       1.0000    0.44290   0.39410   0.96850   Biso      1.000     C          0.089864  
         C62       1.0000    0.39825   0.48535   0.00400   Biso      1.000     C          0.076796  
         C63       1.0000    0.45315   0.59285   0.03500   Biso      1.000     C          -0.083642           
         C64       1.0000    0.40350   0.69250   0.07300   Biso      1.000     C          -0.20235899999999998          
         C65       1.0000    0.33985   0.72915   0.99600   Biso      1.000     C          0.161773  
         C66       1.0000    0.35010   0.84590   0.01700   Biso      1.000     C          -0.179763           
         C67       1.0000    0.27380   0.65720   0.90800   Biso      1.000     C          -0.183109           
         C68       1.0000    0.28890   0.88210   0.94600   Biso      1.000     C          0.067229  
         C69       1.0000    0.21405   0.69595   0.83650   Biso      1.000     C          0.078986  
         C70       1.0000    0.08280   0.58920   0.04400   Biso      1.000     C          0.10622000000000001           
         C71       1.0000    0.30395   0.01705   0.55600   Biso      1.000     C          -0.197346           
         C72       1.0000    0.40350   0.00950   0.52600   Biso      1.000     C          -0.083471           
         Cd1       1.0000    0.12249   0.87751   0.75000   Biso      1.000     Cd          0.503342  
         Cd2       1.0000    0.87751   0.12249   0.25000   Biso      1.000     Cd          0.509714  
         F1        1.0000    0.68025   0.16665   0.58990   Biso      1.000     F          -0.11102000000000001          
         F2        1.0000    0.50415   0.18595   0.63845   Biso      1.000     F          -0.122869           
         F3        1.0000    0.70475   0.53495   0.99360   Biso      1.000     F          -0.110739           
         F4        1.0000    0.83335   0.31975   0.91010   Biso      1.000     F          -0.1207   
         F5        1.0000    0.81405   0.49585   0.86155   Biso      1.000     F          -0.125857           
         F6        1.0000    0.29055   0.38315   0.44010   Biso      1.000     F          -0.12064200000000001          
         F7        1.0000    0.46505   0.29525   0.50640   Biso      1.000     F          -0.123734           
         F8        1.0000    0.31975   0.83335   0.41010   Biso      1.000     F          -0.11020899999999999          
         F9        1.0000    0.49585   0.81405   0.36155   Biso      1.000     F          -0.123768           
         F10       1.0000    0.38315   0.29055   0.94010   Biso      1.000     F          -0.120102           
         F11       1.0000    0.29525   0.46505   0.00640   Biso      1.000     F          -0.118077           
         F12       1.0000    0.61685   0.70945   0.05990   Biso      1.000     F          -0.11478800000000002          
         F13       1.0000    0.18595   0.50415   0.13845   Biso      1.000     F          -0.134035           
         F14       1.0000    0.53495   0.70475   0.49360   Biso      1.000     F          -0.122477           
         F15       1.0000    0.16665   0.68025   0.08990   Biso      1.000     F          -0.11436900000000001          
         F16       1.0000    0.70945   0.61685   0.55990   Biso      1.000     F          -0.11611800000000001          
         H1        1.0000    0.91012   0.10070   0.53609   Biso      1.000     H          0.103647  
         H2        1.0000    0.67085   0.91317   0.37391   Biso      1.000     H          0.101076  
         H3        1.0000    0.72366   0.06485   0.43944   Biso      1.000     H          0.093503  
         H4        1.0000    0.63572   0.95148   0.52579   Biso      1.000     H          0.10259000000000001           
         H5        1.0000    0.63358   0.16096   0.26476   Biso      1.000     H          0.072407  
         H6        1.0000    0.83904   0.36642   0.23524   Biso      1.000     H          0.07346799999999999           
         H7        1.0000    0.56448   0.26707   0.39237   Biso      1.000     H          0.09918400000000001           
         H8        1.0000    0.90950   0.40490   0.58770   Biso      1.000     H          0.108643  
         H9        1.0000    0.76664   0.86344   0.11781   Biso      1.000     H          0.036037  
         H10       1.0000    0.05606   0.07460   0.15004   Biso      1.000     H          0.061021000000000006          
         H11       1.0000    0.80489   0.69400   0.00772   Biso      1.000     H          0.106579  
         H12       1.0000    0.10070   0.91012   0.03609   Biso      1.000     H          0.09854500000000001           
         H13       1.0000    0.97445   0.29286   0.46089   Biso      1.000     H          0.066048  
         H14       1.0000    0.73293   0.43552   0.10763   Biso      1.000     H          0.10273900000000001           
         H15       1.0000    0.59510   0.09050   0.91230   Biso      1.000     H          0.100747  
         H16       1.0000    0.52699   0.23622   0.87169   Biso      1.000     H          0.095998  
         H17       1.0000    0.65524   0.33195   0.89598   Biso      1.000     H          0.120091  
         H18       1.0000    0.58566   0.40636   0.03690   Biso      1.000     H          0.089491  
         H19       1.0000    0.76378   0.47301   0.62831   Biso      1.000     H          0.111921  
         H20       1.0000    0.36428   0.04852   0.47421   Biso      1.000     H          0.102392  
         H21       1.0000    0.69400   0.80489   0.50772   Biso      1.000     H          0.10678   
         H22       1.0000    0.32923   0.08684   0.62609   Biso      1.000     H          0.09930900000000001           
         H23       1.0000    0.27628   0.93519   0.56058   Biso      1.000     H          0.09450499999999999           
         H24       1.0000    0.08988   0.89930   0.46391   Biso      1.000     H          0.104843  
         H25       1.0000    0.30600   0.19511   0.49228   Biso      1.000     H          0.108299  
         H26       1.0000    0.92540   0.94394   0.34996   Biso      1.000     H          0.07256699999999999           
         H27       1.0000    0.13656   0.23336   0.38219   Biso      1.000     H          0.044429  
         H28       1.0000    0.70714   0.02555   0.03911   Biso      1.000     H          0.075027  
         H29       1.0000    0.07460   0.05606   0.65004   Biso      1.000     H          0.06362999999999999           
         H30       1.0000    0.59364   0.41434   0.46310   Biso      1.000     H          0.087453  
         H31       1.0000    0.41434   0.59364   0.96310   Biso      1.000     H          0.089687  
         H32       1.0000    0.66805   0.34476   0.60402   Biso      1.000     H          0.11746600000000001           
         H33       1.0000    0.36642   0.83904   0.73524   Biso      1.000     H          0.070293  
         H34       1.0000    0.02555   0.70714   0.53911   Biso      1.000     H          0.068522  
         H35       1.0000    0.43552   0.73293   0.60763   Biso      1.000     H          0.10198   
         H36       1.0000    0.09050   0.59510   0.41230   Biso      1.000     H          0.098733  
         H37       1.0000    0.33180   0.65527   0.39595   Biso      1.000     H          0.115195  
         H38       1.0000    0.86344   0.76664   0.61781   Biso      1.000     H          0.0585    
         H39       1.0000    0.40636   0.58566   0.53690   Biso      1.000     H          0.090836  
         H40       1.0000    0.23336   0.13656   0.88219   Biso      1.000     H          0.037007  
         H41       1.0000    0.94394   0.92540   0.84996   Biso      1.000     H          0.08826   
         H42       1.0000    0.23631   0.52688   0.37171   Biso      1.000     H          0.097636  
         H43       1.0000    0.89930   0.08988   0.96391   Biso      1.000     H          0.10791400000000001           
         H44       1.0000    0.08683   0.32915   0.12609   Biso      1.000     H          0.10503699999999999           
         H45       1.0000    0.93515   0.27634   0.06056   Biso      1.000     H          0.096871  
         H46       1.0000    0.04852   0.36428   0.97421   Biso      1.000     H          0.099816  
         H47       1.0000    0.16096   0.63358   0.76476   Biso      1.000     H          0.087517  
         H48       1.0000    0.29286   0.97445   0.96089   Biso      1.000     H          0.066845  
         H49       1.0000    0.26707   0.56448   0.89237   Biso      1.000     H          0.10353499999999999           
         H50       1.0000    0.40490   0.90950   0.08770   Biso      1.000     H          0.102     
         H51       1.0000    0.34473   0.66820   0.10405   Biso      1.000     H          0.122003  
         H52       1.0000    0.19511   0.30600   0.99228   Biso      1.000     H          0.10926199999999998           
         H53       1.0000    0.47312   0.76369   0.12829   Biso      1.000     H          0.09744   
         N1        1.0000    0.19140   0.77440   0.63950   Biso      1.000     N          -0.261879           
         N2        1.0000    0.22560   0.80860   0.86050   Biso      1.000     N          -0.24073899999999998          
         N3        1.0000    0.02825   0.09175   0.36300   Biso      1.000     N          -0.242148           
         N4        1.0000    0.80860   0.22560   0.36050   Biso      1.000     N          -0.258577           
         N5        1.0000    0.90825   0.97175   0.13700   Biso      1.000     N          -0.27464  
         N6        1.0000    0.77440   0.19140   0.13950   Biso      1.000     N          -0.254708           
         N7        1.0000    0.97175   0.90825   0.63700   Biso      1.000     N          -0.247052           
         N8        1.0000    0.09175   0.02825   0.86300   Biso      1.000     N          -0.237794 