
##########################################################################
#               Crystallographic Information Format file
#               Produced by PyCifRW module
#
#  This is a CIF file.  CIF has been adopted by the International
#  Union of Crystallography as the standard for data archiving and
#  transmission.
#
#  For information on this file format, follow the CIF links at
#  http://www.iucr.org
##########################################################################

data_image0

_cell_length_a                          13.0455
_cell_length_b                          13.0455
_cell_length_c                          16.685
_cell_angle_alpha                       109.471
_cell_angle_beta                        109.471
_cell_angle_gamma                       93.7056
_symmetry_space_group_name_H-M          'P 1'
_symmetry_int_tables_number             1
loop_
  _symmetry_equiv_pos_as_xyz
         'x, y, z' 
loop_
  _atom_site_label
  _atom_site_occupancy
  _atom_site_fract_x
  _atom_site_fract_y
  _atom_site_fract_z
  _atom_site_thermal_displace_type
  _atom_site_B_iso_or_equiv
  _atom_site_type_symbol
  _atom_site_charge
         C1        1.0000    0.92600   0.76400   0.79200   Biso      1.000     C          0.125433  
         C2        1.0000    0.06960   0.45640   0.30600   Biso      1.000     C          0.146117  
         C3        1.0000    0.11770   0.41030   0.37800   Biso      1.000     C          -0.20689699999999997          
         C4        1.0000    0.18350   0.32450   0.35500   Biso      1.000     C          -0.041527           
         C5        1.0000    0.12970   0.21830   0.31600   Biso      1.000     C          0.07683999999999999           
         C6        1.0000    0.28290   0.33310   0.34500   Biso      1.000     C          0.075016  
         C7        1.0000    0.16870   0.12130   0.28200   Biso      1.000     C          0.126334  
         C8        1.0000    0.07400   0.57200   0.32800   Biso      1.000     C          -0.27121999999999996          
         C9        1.0000    0.33320   0.24760   0.30800   Biso      1.000     C          0.099288  
         C10       1.0000    0.31070   0.02530   0.23200   Biso      1.000     C          -0.20211600000000002          
         C11       1.0000    0.38990   0.99810   0.31400   Biso      1.000     C          0.09169   
         C12       1.0000    0.37380   0.88020   0.29400   Biso      1.000     C          -0.154316           
         C13       1.0000    0.45510   0.07090   0.40800   Biso      1.000     C          -0.233494           
         C14       1.0000    0.43250   0.83350   0.35700   Biso      1.000     C          -0.051912           
         C15       1.0000    0.51440   0.03360   0.48100   Biso      1.000     C          0.07497899999999999           
         C16       1.0000    0.27720   0.13880   0.28500   Biso      1.000     C          -0.133428           
         C17       1.0000    0.55910   0.59690   0.40600   Biso      1.000     C          0.045394  
         C18       1.0000    0.00270   0.38530   0.22400   Biso      1.000     C          -0.18753699999999998          
         C19       1.0000    0.94250   0.42550   0.15400   Biso      1.000     C          -0.025896           
         C20       1.0000    0.51210   0.68190   0.82200   Biso      1.000     C          0.153617  
         C21       1.0000    0.41580   0.69420   0.74600   Biso      1.000     C          -0.20419400000000001          
         C22       1.0000    0.32170   0.71230   0.77900   Biso      1.000     C          -0.079487           
         C23       1.0000    0.22160   0.62640   0.73900   Biso      1.000     C          0.094539  
         C24       1.0000    0.31540   0.80660   0.85100   Biso      1.000     C          0.088799  
         C25       1.0000    0.13700   0.64100   0.76300   Biso      1.000     C          0.09289700000000001           
         C26       1.0000    0.01030   0.59770   0.24900   Biso      1.000     C          0.151454  
         C27       1.0000    0.22050   0.81350   0.87500   Biso      1.000     C          0.095623  
         C28       1.0000    0.02370   0.72830   0.85800   Biso      1.000     C          -0.202496           
         C29       1.0000    0.70550   0.72650   0.92900   Biso      1.000     C          0.064223  
         C30       1.0000    0.82140   0.70260   0.75800   Biso      1.000     C          -0.176173           
         C31       1.0000    0.94200   0.85600   0.76300   Biso      1.000     C          -0.20728200000000002          
         C32       1.0000    0.72700   0.72700   0.69400   Biso      1.000     C          0.041568  
         C33       1.0000    0.85350   0.87450   0.70800   Biso      1.000     C          0.093875  
         C34       1.0000    0.12870   0.73130   0.83100   Biso      1.000     C          -0.062516           
         C35       1.0000    0.72650   0.70550   0.42900   Biso      1.000     C          0.064134  
         C36       1.0000    0.58230   0.49770   0.33800   Biso      1.000     C          -0.21451900000000002          
         C37       1.0000    0.75290   0.61510   0.36600   Biso      1.000     C          -0.185826           
         C38       1.0000    0.41030   0.11770   0.87800   Biso      1.000     C          -0.205154           
         C39       1.0000    0.32450   0.18350   0.85500   Biso      1.000     C          -0.042372           
         C40       1.0000    0.21830   0.12970   0.81600   Biso      1.000     C          0.076611  
         C41       1.0000    0.33310   0.28290   0.84500   Biso      1.000     C          0.075313  
         C42       1.0000    0.12130   0.16870   0.78200   Biso      1.000     C          0.126461  
         C43       1.0000    0.24760   0.33320   0.80800   Biso      1.000     C          0.099214  
         C44       1.0000    0.45640   0.06960   0.80600   Biso      1.000     C          0.144837  
         C45       1.0000    0.13880   0.27720   0.78500   Biso      1.000     C          -0.133217           
         C46       1.0000    0.99810   0.38990   0.81400   Biso      1.000     C          0.091333  
         C47       1.0000    0.88020   0.37380   0.79400   Biso      1.000     C          -0.15415399999999999          
         C48       1.0000    0.07090   0.45510   0.90800   Biso      1.000     C          -0.233483           
         C49       1.0000    0.83350   0.43250   0.85700   Biso      1.000     C          -0.052155999999999994         
         C50       1.0000    0.03360   0.51440   0.98100   Biso      1.000     C          0.075007  
         C51       1.0000    0.59690   0.55910   0.90600   Biso      1.000     C          0.045412  
         C52       1.0000    0.02530   0.31070   0.73200   Biso      1.000     C          -0.20128800000000002          
         C53       1.0000    0.57200   0.07400   0.82800   Biso      1.000     C          -0.2712   
         C54       1.0000    0.38530   0.00270   0.72400   Biso      1.000     C          -0.186613           
         C55       1.0000    0.59770   0.01030   0.74900   Biso      1.000     C          0.151418  
         C56       1.0000    0.68190   0.51210   0.32200   Biso      1.000     C          0.153899  
         C57       1.0000    0.69420   0.41580   0.24600   Biso      1.000     C          -0.20498899999999998          
         C58       1.0000    0.71230   0.32170   0.27900   Biso      1.000     C          -0.079223           
         C59       1.0000    0.62640   0.22160   0.23900   Biso      1.000     C          0.094661  
         C60       1.0000    0.80660   0.31540   0.35100   Biso      1.000     C          0.08844400000000001           
         C61       1.0000    0.64100   0.13700   0.26300   Biso      1.000     C          0.092789  
         C62       1.0000    0.81350   0.22050   0.37500   Biso      1.000     C          0.095861  
         C63       1.0000    0.73130   0.12870   0.33100   Biso      1.000     C          -0.062496           
         C64       1.0000    0.72830   0.02370   0.35800   Biso      1.000     C          -0.202797           
         C65       1.0000    0.76400   0.92600   0.29200   Biso      1.000     C          0.125554  
         C66       1.0000    0.70260   0.82140   0.25800   Biso      1.000     C          -0.17623699999999998          
         C67       1.0000    0.85600   0.94200   0.26300   Biso      1.000     C          -0.20740300000000003          
         C68       1.0000    0.72700   0.72700   0.19400   Biso      1.000     C          0.041559  
         C69       1.0000    0.87450   0.85350   0.20800   Biso      1.000     C          0.093876  
         C70       1.0000    0.42550   0.94250   0.65400   Biso      1.000     C          -0.026461000000000002         
         C71       1.0000    0.61510   0.75290   0.86600   Biso      1.000     C          -0.18567  
         C72       1.0000    0.49770   0.58230   0.83800   Biso      1.000     C          -0.21421700000000002          
         Cd1       1.0000    0.84799   0.60301   0.05980   Biso      1.000     Cd          0.580205  
         Cd2       1.0000    0.60301   0.84799   0.55980   Biso      1.000     Cd          0.580771  
         F1        1.0000    0.22750   0.54270   0.67620   Biso      1.000     F          -0.070656           
         F2        1.0000    0.04430   0.55870   0.71950   Biso      1.000     F          -0.119999           
         F3        1.0000    0.23580   0.91460   0.95310   Biso      1.000     F          -0.173251           
         F4        1.0000    0.02050   0.19070   0.32000   Biso      1.000     F          -0.188728           
         F5        1.0000    0.34440   0.43380   0.37350   Biso      1.000     F          -0.12133499999999998          
         F6        1.0000    0.11070   0.01490   0.25370   Biso      1.000     F          -0.10680899999999999          
         F7        1.0000    0.43000   0.26060   0.30720   Biso      1.000     F          -0.046421           
         F8        1.0000    0.54270   0.22750   0.17620   Biso      1.000     F          -0.070536           
         F9        1.0000    0.89200   0.40480   0.39930   Biso      1.000     F          -0.09754299999999999          
         F10       1.0000    0.55870   0.04430   0.21950   Biso      1.000     F          -0.119805           
         F11       1.0000    0.91460   0.23580   0.45310   Biso      1.000     F          -0.173155           
         F12       1.0000    0.40480   0.89200   0.89930   Biso      1.000     F          -0.098147           
         F13       1.0000    0.43380   0.34440   0.87350   Biso      1.000     F          -0.12126600000000001          
         F14       1.0000    0.26060   0.43000   0.80720   Biso      1.000     F          -0.046549           
         F15       1.0000    0.19070   0.02050   0.82000   Biso      1.000     F          -0.18851199999999999          
         F16       1.0000    0.01490   0.11070   0.75370   Biso      1.000     F          -0.107399           
         H1        1.0000    0.64132   0.67208   0.66449   Biso      1.000     H          0.073464  
         H2        1.0000    0.02641   0.91044   0.78601   Biso      1.000     H          0.110555  
         H3        1.0000    0.80828   0.63091   0.78044   Biso      1.000     H          0.101623  
         H4        1.0000    0.62801   0.83177   0.85228   Biso      1.000     H          0.10416800000000001           
         H5        1.0000    0.41417   0.52236   0.80071   Biso      1.000     H          0.105129  
         H6        1.0000    0.78782   0.04701   0.43199   Biso      1.000     H          0.102771  
         H7        1.0000    0.58828   0.48003   0.92025   Biso      1.000     H          0.065026  
         H8        1.0000    0.04036   0.35719   0.68871   Biso      1.000     H          0.106938  
         H9        1.0000    0.95395   0.23629   0.68820   Biso      1.000     H          0.107056  
         H10       1.0000    0.13720   0.31831   0.85641   Biso      1.000     H          0.08967   
         H11       1.0000    0.32437   0.21971   0.92729   Biso      1.000     H          0.088408  
         H12       1.0000    0.37308   0.04711   0.89200   Biso      1.000     H          0.115034  
         H13       1.0000    0.48343   0.17250   0.94283   Biso      1.000     H          0.087746  
         H14       1.0000    0.79034   0.78415   0.96469   Biso      1.000     H          0.069348  
         H15       1.0000    0.77117   0.08917   0.27993   Biso      1.000     H          0.098808  
         H16       1.0000    0.75047   0.28284   0.22650   Biso      1.000     H          0.081259  
         H17       1.0000    0.61549   0.38879   0.18154   Biso      1.000     H          0.1122    
         H18       1.0000    0.76840   0.44098   0.23027   Biso      1.000     H          0.091725  
         H19       1.0000    0.23404   0.95635   0.18883   Biso      1.000     H          0.106459  
         H20       1.0000    0.35783   0.03685   0.18808   Biso      1.000     H          0.10806500000000001           
         H21       1.0000    0.28284   0.75047   0.72650   Biso      1.000     H          0.081425  
         H22       1.0000    0.86048   0.94623   0.68431   Biso      1.000     H          0.040006  
         H23       1.0000    0.08917   0.77117   0.77993   Biso      1.000     H          0.098807  
         H24       1.0000    0.04744   0.78794   0.93201   Biso      1.000     H          0.102594  
         H25       1.0000    0.99449   0.64067   0.85167   Biso      1.000     H          0.109651  
         H26       1.0000    0.04504   0.37368   0.39005   Biso      1.000     H          0.115499  
         H27       1.0000    0.17298   0.48147   0.44413   Biso      1.000     H          0.089043  
         H28       1.0000    0.21971   0.32437   0.42729   Biso      1.000     H          0.08828899999999999           
         H29       1.0000    0.31831   0.13720   0.35641   Biso      1.000     H          0.089862  
         H30       1.0000    0.64053   0.99483   0.35155   Biso      1.000     H          0.109555  
         H31       1.0000    0.88345   0.36424   0.08377   Biso      1.000     H          0.050637  
         H32       1.0000    0.38809   0.61587   0.68117   Biso      1.000     H          0.11173699999999999           
         H33       1.0000    0.99228   0.29238   0.20825   Biso      1.000     H          0.10073700000000001           
         H34       1.0000    0.44187   0.76856   0.73081   Biso      1.000     H          0.091512  
         H35       1.0000    0.09662   0.56138   0.05379   Biso      1.000     H          0.09614099999999999           
         H36       1.0000    0.73960   0.42227   0.83500   Biso      1.000     H          0.101879  
         H37       1.0000    0.16324   0.45827   0.92329   Biso      1.000     H          0.074942  
         H38       1.0000    0.82402   0.31035   0.72369   Biso      1.000     H          0.093309  
         H39       1.0000    0.63320   0.12364   0.90101   Biso      1.000     H          0.102658  
         H40       1.0000    0.29238   0.99228   0.70825   Biso      1.000     H          0.100668  
         H41       1.0000    0.00745   0.68760   0.25694   Biso      1.000     H          0.018285  
         H42       1.0000    0.36424   0.88345   0.58377   Biso      1.000     H          0.050505  
         H43       1.0000    0.94623   0.86048   0.18431   Biso      1.000     H          0.039835  
         H44       1.0000    0.67208   0.64132   0.16449   Biso      1.000     H          0.073429  
         H45       1.0000    0.68760   0.00745   0.75694   Biso      1.000     H          0.01832   
         H46       1.0000    0.63091   0.80828   0.28044   Biso      1.000     H          0.101632  
         H47       1.0000    0.83177   0.62801   0.35228   Biso      1.000     H          0.10419   
         H48       1.0000    0.52236   0.41417   0.30071   Biso      1.000     H          0.105121  
         H49       1.0000    0.78415   0.79034   0.46469   Biso      1.000     H          0.069298  
         H50       1.0000    0.48003   0.58828   0.42025   Biso      1.000     H          0.065086  
         H51       1.0000    0.56138   0.09662   0.55379   Biso      1.000     H          0.096164  
         H52       1.0000    0.42227   0.73960   0.33500   Biso      1.000     H          0.101953  
         H53       1.0000    0.45827   0.16324   0.42329   Biso      1.000     H          0.075004  
         H54       1.0000    0.31035   0.82402   0.22369   Biso      1.000     H          0.093675  
         H55       1.0000    0.91044   0.02641   0.28601   Biso      1.000     H          0.11048800000000002           
         H56       1.0000    0.12364   0.63320   0.40101   Biso      1.000     H          0.103006  
         N1        1.0000    0.92470   0.50510   0.95100   Biso      1.000     N          -0.30452199999999996          
         N2        1.0000    0.81640   0.74960   0.17400   Biso      1.000     N          -0.263506           
         N3        1.0000    0.69310   0.63290   0.94800   Biso      1.000     N          -0.240564           
         N4        1.0000    0.50510   0.92470   0.45100   Biso      1.000     N          -0.30457199999999995          
         N5        1.0000    0.74960   0.81640   0.67400   Biso      1.000     N          -0.26356399999999996          
         N6        1.0000    0.95630   0.54190   0.17200   Biso      1.000     N          -0.243944           
         N7        1.0000    0.63290   0.69310   0.44800   Biso      1.000     N          -0.240702           
         N8        1.0000    0.54190   0.95630   0.67200   Biso      1.000     N          -0.24399200000000001 