
##########################################################################
#               Crystallographic Information Format file
#               Produced by PyCifRW module
#
#  This is a CIF file.  CIF has been adopted by the International
#  Union of Crystallography as the standard for data archiving and
#  transmission.
#
#  For information on this file format, follow the CIF links at
#  http://www.iucr.org
##########################################################################

data_image0

_cell_length_a                          9.5268
_cell_length_b                          9.5268
_cell_length_c                          23.401
_cell_angle_alpha                       90
_cell_angle_beta                        90
_cell_angle_gamma                       90
_symmetry_space_group_name_H-M          'P 1'
_symmetry_int_tables_number             1
loop_
  _symmetry_equiv_pos_as_xyz
         'x, y, z' 
loop_
  _atom_site_label
  _atom_site_occupancy
  _atom_site_fract_x
  _atom_site_fract_y
  _atom_site_fract_z
  _atom_site_thermal_displace_type
  _atom_site_B_iso_or_equiv
  _atom_site_type_symbol
  _atom_site_charge
         C1        1.0000    0.50000   0.50000   0.50000   Biso      1.000     C          0.079709  
         C2        1.0000    0.74490   0.40250   0.18993   Biso      1.000     C          -0.005566           
         C3        1.0000    0.95070   0.32020   0.15020   Biso      1.000     C          -0.10280399999999999          
         C4        1.0000    0.75510   0.90250   0.68993   Biso      1.000     C          -0.0055850000000000006        
         C5        1.0000    0.11350   0.92830   0.03639   Biso      1.000     C          -0.081264           
         C6        1.0000    0.12330   0.75710   0.11022   Biso      1.000     C          0.232409  
         C7        1.0000    0.26740   0.75120   0.11000   Biso      1.000     C          -0.247865           
         C8        1.0000    0.33010   0.67190   0.15092   Biso      1.000     C          -0.11716700000000001          
         C9        1.0000    0.25510   0.59750   0.18993   Biso      1.000     C          -0.005572           
         C10       1.0000    0.04930   0.67980   0.15020   Biso      1.000     C          -0.10279  
         C11       1.0000    0.83010   0.82810   0.65092   Biso      1.000     C          -0.117182           
         C12       1.0000    0.00000   0.00000   0.00000   Biso      1.000     C          0.079705  
         C13       1.0000    0.42830   0.61350   0.46361   Biso      1.000     C          -0.081264           
         C14       1.0000    0.25710   0.62330   0.38978   Biso      1.000     C          0.232456  
         C15       1.0000    0.25120   0.76740   0.39000   Biso      1.000     C          -0.24791  
         C16       1.0000    0.17190   0.83010   0.34908   Biso      1.000     C          -0.11716300000000002          
         C17       1.0000    0.09750   0.75510   0.31007   Biso      1.000     C          -0.005549           
         C18       1.0000    0.17980   0.54930   0.34980   Biso      1.000     C          -0.102809           
         C19       1.0000    0.45070   0.17980   0.65020   Biso      1.000     C          -0.102808           
         C20       1.0000    0.24490   0.09750   0.68993   Biso      1.000     C          -0.005566           
         C21       1.0000    0.16990   0.17190   0.65092   Biso      1.000     C          -0.117157           
         C22       1.0000    0.23260   0.25120   0.61000   Biso      1.000     C          -0.247869           
         C23       1.0000    0.37670   0.25710   0.61022   Biso      1.000     C          0.232452  
         C24       1.0000    0.38650   0.42830   0.53639   Biso      1.000     C          -0.081272           
         C25       1.0000    0.66990   0.32810   0.15092   Biso      1.000     C          -0.11715199999999999          
         C26       1.0000    0.62330   0.74290   0.61022   Biso      1.000     C          0.232435  
         C27       1.0000    0.90250   0.24490   0.31007   Biso      1.000     C          -0.0055969999999999995        
         C28       1.0000    0.82810   0.16990   0.34908   Biso      1.000     C          -0.11718699999999999          
         C29       1.0000    0.74880   0.23260   0.39000   Biso      1.000     C          -0.247892           
         C30       1.0000    0.74290   0.37670   0.38978   Biso      1.000     C          0.232434  
         C31       1.0000    0.57170   0.38650   0.46361   Biso      1.000     C          -0.08127100000000001          
         C32       1.0000    0.76740   0.74880   0.61000   Biso      1.000     C          -0.24788000000000002          
         C33       1.0000    0.82020   0.45070   0.34980   Biso      1.000     C          -0.102834           
         C34       1.0000    0.73260   0.24880   0.11000   Biso      1.000     C          -0.247881           
         C35       1.0000    0.61350   0.57170   0.53639   Biso      1.000     C          -0.08126599999999999          
         C36       1.0000    0.75710   0.87670   0.88978   Biso      1.000     C          0.23247199999999998           
         C37       1.0000    0.67190   0.66990   0.84908   Biso      1.000     C          -0.117171           
         C38       1.0000    0.40250   0.25510   0.81007   Biso      1.000     C          -0.00556  
         C39       1.0000    0.24290   0.12330   0.88978   Biso      1.000     C          0.232469  
         C40       1.0000    0.75120   0.73260   0.89000   Biso      1.000     C          -0.247883           
         C41       1.0000    0.59750   0.74490   0.81007   Biso      1.000     C          -0.005561           
         C42       1.0000    0.32020   0.04930   0.84980   Biso      1.000     C          -0.10281300000000002          
         C43       1.0000    0.32810   0.33010   0.84908   Biso      1.000     C          -0.117166           
         C44       1.0000    0.54930   0.82020   0.65020   Biso      1.000     C          -0.102828           
         C45       1.0000    0.24880   0.26740   0.89000   Biso      1.000     C          -0.247887           
         C46       1.0000    0.07170   0.11350   0.96361   Biso      1.000     C          -0.08127999999999999          
         C47       1.0000    0.87670   0.24290   0.11022   Biso      1.000     C          0.232461  
         C48       1.0000    0.88650   0.07170   0.03639   Biso      1.000     C          -0.08126900000000001          
         C49       1.0000    0.92830   0.88650   0.96361   Biso      1.000     C          -0.081273           
         C50       1.0000    0.67980   0.95070   0.84980   Biso      1.000     C          -0.10283099999999999          
         Cu1       1.0000    0.00000   0.50000   0.25000   Biso      1.000     Cu          0.29375999999999997           
         Cu2       1.0000    0.50000   0.00000   0.75000   Biso      1.000     Cu          0.29368099999999997           
         H1        1.0000    0.54280   0.69850   0.78310   Biso      1.000     H          0.090577  
         H2        1.0000    0.70050   0.18010   0.41710   Biso      1.000     H          0.122099  
         H3        1.0000    0.62110   0.32040   0.48790   Biso      1.000     H          0.09927799999999999           
         H4        1.0000    0.83170   0.07240   0.34770   Biso      1.000     H          0.107321  
         H5        1.0000    0.66830   0.57240   0.84770   Biso      1.000     H          0.10733699999999999           
         H6        1.0000    0.50260   0.33560   0.44130   Biso      1.000     H          0.099031  
         H7        1.0000    0.68010   0.20050   0.08290   Biso      1.000     H          0.122123  
         H8        1.0000    0.81800   0.54820   0.35070   Biso      1.000     H          0.10091599999999999           
         H9        1.0000    0.68200   0.04820   0.85070   Biso      1.000     H          0.100944  
         H10       1.0000    0.67960   0.62110   0.51210   Biso      1.000     H          0.099289  
         H11       1.0000    0.33560   0.49740   0.55870   Biso      1.000     H          0.09901599999999999           
         H12       1.0000    0.32040   0.37890   0.51210   Biso      1.000     H          0.09929299999999999           
         H13       1.0000    0.87890   0.82040   0.98790   Biso      1.000     H          0.09929199999999999           
         H14       1.0000    0.18010   0.29950   0.58290   Biso      1.000     H          0.122123  
         H15       1.0000    0.99740   0.83560   0.94130   Biso      1.000     H          0.099014  
         H16       1.0000    0.07240   0.16830   0.65230   Biso      1.000     H          0.107325  
         H17       1.0000    0.19850   0.04280   0.71690   Biso      1.000     H          0.09058300000000001           
         H18       1.0000    0.54820   0.18200   0.64930   Biso      1.000     H          0.100926  
         H19       1.0000    0.95720   0.19850   0.28310   Biso      1.000     H          0.090575  
         H20       1.0000    0.79950   0.68010   0.91710   Biso      1.000     H          0.12213399999999999           
         H21       1.0000    0.04280   0.80150   0.28310   Biso      1.000     H          0.090568  
         H22       1.0000    0.18200   0.45180   0.35070   Biso      1.000     H          0.100944  
         H23       1.0000    0.82040   0.12110   0.01210   Biso      1.000     H          0.099286  
         H24       1.0000    0.57240   0.33170   0.15230   Biso      1.000     H          0.10730899999999999           
         H25       1.0000    0.83560   0.00260   0.05870   Biso      1.000     H          0.099024  
         H26       1.0000    0.69850   0.45720   0.21690   Biso      1.000     H          0.090571  
         H27       1.0000    0.04820   0.31800   0.14930   Biso      1.000     H          0.100912  
         H28       1.0000    0.80150   0.95720   0.71690   Biso      1.000     H          0.09058300000000001           
         H29       1.0000    0.92760   0.83170   0.65230   Biso      1.000     H          0.10731900000000001           
         H30       1.0000    0.16440   0.99740   0.05870   Biso      1.000     H          0.099018  
         H31       1.0000    0.17960   0.87890   0.01210   Biso      1.000     H          0.099277  
         H32       1.0000    0.31800   0.95180   0.85070   Biso      1.000     H          0.10092899999999999           
         H33       1.0000    0.66440   0.50260   0.55870   Biso      1.000     H          0.099014  
         H34       1.0000    0.81990   0.70050   0.58290   Biso      1.000     H          0.122116  
         H35       1.0000    0.45720   0.30150   0.78310   Biso      1.000     H          0.090567  
         H36       1.0000    0.30150   0.54280   0.21690   Biso      1.000     H          0.090567  
         H37       1.0000    0.33170   0.42760   0.84770   Biso      1.000     H          0.107321  
         H38       1.0000    0.95180   0.68200   0.14930   Biso      1.000     H          0.100906  
         H39       1.0000    0.20050   0.31990   0.91710   Biso      1.000     H          0.122125  
         H40       1.0000    0.49740   0.66440   0.44130   Biso      1.000     H          0.099024  
         H41       1.0000    0.37890   0.67960   0.48790   Biso      1.000     H          0.099288  
         H42       1.0000    0.12110   0.17960   0.98790   Biso      1.000     H          0.09929299999999999           
         H43       1.0000    0.29950   0.81990   0.41710   Biso      1.000     H          0.122126  
         H44       1.0000    0.00260   0.16440   0.94130   Biso      1.000     H          0.09902899999999999           
         H45       1.0000    0.16830   0.92760   0.34770   Biso      1.000     H          0.107342  
         H46       1.0000    0.45180   0.81800   0.64930   Biso      1.000     H          0.100924  
         H47       1.0000    0.42760   0.66830   0.15230   Biso      1.000     H          0.1073    
         H48       1.0000    0.31990   0.79950   0.08290   Biso      1.000     H          0.1221    
         N1        1.0000    0.60260   0.88730   0.81027   Biso      1.000     N          -0.191455           
         N2        1.0000    0.61270   0.89740   0.68973   Biso      1.000     N          -0.19143  
         N3        1.0000    0.38730   0.10260   0.68973   Biso      1.000     N          -0.191423           
         N4        1.0000    0.89740   0.38730   0.31027   Biso      1.000     N          -0.191473           
         N5        1.0000    0.10260   0.61270   0.31027   Biso      1.000     N          -0.191497           
         N6        1.0000    0.11270   0.60260   0.18973   Biso      1.000     N          -0.191475           
         N7        1.0000    0.88730   0.39740   0.18973   Biso      1.000     N          -0.191484           
         N8        1.0000    0.39740   0.11270   0.81027   Biso      1.000     N          -0.191498           
         O1        1.0000    0.45780   0.33170   0.57328   Biso      1.000     O          -0.19885899999999998          
         O2        1.0000    0.66830   0.45780   0.42672   Biso      1.000     O          -0.19888  
         O3        1.0000    0.04220   0.83170   0.07328   Biso      1.000     O          -0.19889600000000002          
         O4        1.0000    0.95780   0.16830   0.07328   Biso      1.000     O          -0.198889           
         O5        1.0000    0.16830   0.04220   0.92672   Biso      1.000     O          -0.19888699999999998          
         O6        1.0000    0.83170   0.95780   0.92672   Biso      1.000     O          -0.198874           
         O7        1.0000    0.54220   0.66830   0.57328   Biso      1.000     O          -0.198876           
         O8        1.0000    0.33170   0.54220   0.42672   Biso      1.000     O          -0.198884 