
##########################################################################
#               Crystallographic Information Format file
#               Produced by PyCifRW module
#
#  This is a CIF file.  CIF has been adopted by the International
#  Union of Crystallography as the standard for data archiving and
#  transmission.
#
#  For information on this file format, follow the CIF links at
#  http://www.iucr.org
##########################################################################

data_image0

_cell_length_a                          10.799
_cell_length_b                          18.1608
_cell_length_c                          19.6826
_cell_angle_alpha                       82.7946
_cell_angle_beta                        74.078
_cell_angle_gamma                       72.7035
_symmetry_space_group_name_H-M          'P 1'
_symmetry_int_tables_number             1
loop_
  _symmetry_equiv_pos_as_xyz
         'x, y, z' 
loop_
  _atom_site_label
  _atom_site_occupancy
  _atom_site_fract_x
  _atom_site_fract_y
  _atom_site_fract_z
  _atom_site_thermal_displace_type
  _atom_site_B_iso_or_equiv
  _atom_site_type_symbol
  _atom_site_charge
         C1        1.0000    0.16002   0.89625   0.25771   Biso      1.000     C          -0.136812           
         C2        1.0000    0.54520   0.49465   0.87115   Biso      1.000     C          0.62089   
         C3        1.0000    0.49301   0.42782   0.56756   Biso      1.000     C          -0.086725           
         C4        1.0000    0.50643   0.99432   0.73182   Biso      1.000     C          -0.11931  
         C5        1.0000    0.78030   0.10853   0.68767   Biso      1.000     C          -0.08269  
         C6        1.0000    0.84769   0.38878   0.25544   Biso      1.000     C          0.625248  
         C7        1.0000    0.82894   0.84681   0.34791   Biso      1.000     C          -0.150254           
         C8        1.0000    0.52786   0.89847   0.19941   Biso      1.000     C          -0.076615           
         C9        1.0000    0.92001   0.06765   0.88413   Biso      1.000     C          -0.13643  
         C10       1.0000    0.71707   0.82883   0.34103   Biso      1.000     C          0.085018  
         C11       1.0000    0.98839   0.07218   0.93244   Biso      1.000     C          -0.090054           
         C12       1.0000    0.28036   0.54681   0.47067   Biso      1.000     C          0.596217  
         C13       1.0000    0.12927   0.26116   0.56950   Biso      1.000     C          -0.02272  
         C14       1.0000    0.68702   0.76312   0.37644   Biso      1.000     C          -0.153467           
         C15       1.0000    0.57085   0.95875   0.31135   Biso      1.000     C          -0.07518  
         C16       1.0000    0.26884   0.95140   0.40572   Biso      1.000     C          0.562259  
         C17       1.0000    0.52832   0.02373   0.78803   Biso      1.000     C          -0.017568           
         C18       1.0000    0.39450   0.14862   0.75858   Biso      1.000     C          -0.139634           
         C19       1.0000    0.01235   0.96653   0.17997   Biso      1.000     C          0.0838    
         C20       1.0000    0.47214   0.10153   0.80059   Biso      1.000     C          -0.076593           
         C21       1.0000    0.34095   0.54125   0.18865   Biso      1.000     C          -0.073222           
         C22       1.0000    0.80638   0.99359   0.14485   Biso      1.000     C          -0.100542           
         C23       1.0000    0.42915   0.04125   0.68865   Biso      1.000     C          -0.075163           
         C24       1.0000    0.92350   0.60853   0.18767   Biso      1.000     C          -0.084661           
         C25       1.0000    0.83998   0.10375   0.74229   Biso      1.000     C          -0.136848           
         C26       1.0000    0.67342   0.26312   0.87644   Biso      1.000     C          -0.154844           
         C27       1.0000    0.87402   0.95831   0.08145   Biso      1.000     C          -0.013599           
         C28       1.0000    0.69237   0.37996   0.79790   Biso      1.000     C          0.069088  
         C29       1.0000    0.12848   0.02766   0.32398   Biso      1.000     C          -0.11376  
         C30       1.0000    0.12548   0.00278   0.80646   Biso      1.000     C          -0.158588           
         C31       1.0000    0.59738   0.21826   0.92058   Biso      1.000     C          -0.102988           
         C32       1.0000    0.32658   0.73688   0.12356   Biso      1.000     C          -0.154852           
         C33       1.0000    0.49357   0.00568   0.26818   Biso      1.000     C          -0.119344           
         C34       1.0000    0.37584   0.19657   0.98455   Biso      1.000     C          0.593     
         C35       1.0000    0.93099   0.96691   0.73151   Biso      1.000     C          -0.073427           
         C36       1.0000    0.65885   0.53347   0.32003   Biso      1.000     C          0.083869  
         C37       1.0000    0.60025   0.69734   0.10756   Biso      1.000     C          -0.093401           
         C38       1.0000    0.81398   0.60375   0.24229   Biso      1.000     C          -0.13366  
         C39       1.0000    0.98012   0.47234   0.17602   Biso      1.000     C          -0.114515           
         C40       1.0000    0.01161   0.92782   0.06756   Biso      1.000     C          -0.089891           
         C41       1.0000    0.20216   0.04681   0.97067   Biso      1.000     C          0.595951  
         C42       1.0000    0.12941   0.53309   0.76849   Biso      1.000     C          -0.07327  
         C43       1.0000    0.26743   0.49432   0.23182   Biso      1.000     C          -0.121727           
         C44       1.0000    0.87404   0.45140   0.90572   Biso      1.000     C          0.564869  
         C45       1.0000    0.19830   0.64862   0.25858   Biso      1.000     C          -0.140289           
         C46       1.0000    0.87059   0.46691   0.23151   Biso      1.000     C          -0.073207           
         C47       1.0000    0.91866   0.52772   0.66676   Biso      1.000     C          0.579628  
         C48       1.0000    0.08304   0.96658   0.23474   Biso      1.000     C          0.068987  
         C49       1.0000    0.19362   0.00641   0.85515   Biso      1.000     C          -0.100493           
         C50       1.0000    0.23622   0.28174   0.57942   Biso      1.000     C          -0.101463           
         C51       1.0000    0.20314   0.95755   0.34657   Biso      1.000     C          -0.008304           
         C52       1.0000    0.18602   0.39625   0.75771   Biso      1.000     C          -0.133695           
         C53       1.0000    0.00726   0.54245   0.15343   Biso      1.000     C          -0.007898           
         C54       1.0000    0.31298   0.23688   0.62356   Biso      1.000     C          -0.15346  
         C55       1.0000    0.39975   0.30266   0.89244   Biso      1.000     C          -0.093398           
         C56       1.0000    0.12596   0.54860   0.09428   Biso      1.000     C          0.564858  
         C57       1.0000    0.07999   0.93235   0.11587   Biso      1.000     C          -0.136374           
         C58       1.0000    0.40262   0.78174   0.07942   Biso      1.000     C          -0.102972           
         C59       1.0000    0.38686   0.02772   0.16676   Biso      1.000     C          0.580296  
         C60       1.0000    0.45480   0.50535   0.12885   Biso      1.000     C          0.620897  
         C61       1.0000    0.45993   0.23884   0.93050   Biso      1.000     C          -0.02174  
         C62       1.0000    0.37023   0.12004   0.70210   Biso      1.000     C          0.068734  
         C63       1.0000    0.87452   0.99722   0.19354   Biso      1.000     C          -0.158488           
         C64       1.0000    0.54007   0.76116   0.06950   Biso      1.000     C          -0.02171  
         C65       1.0000    0.60550   0.85138   0.24142   Biso      1.000     C          -0.139637           
         C66       1.0000    0.87152   0.97234   0.67602   Biso      1.000     C          -0.113762           
         C67       1.0000    0.99191   0.11122   0.24456   Biso      1.000     C          0.622708  
         C68       1.0000    0.65905   0.45875   0.81135   Biso      1.000     C          -0.073204           
         C69       1.0000    0.05696   0.30343   0.51545   Biso      1.000     C          0.593397  
         C70       1.0000    0.98765   0.03347   0.82003   Biso      1.000     C          0.083676  
         C71       1.0000    0.15231   0.61122   0.74456   Biso      1.000     C          0.625239  
         C72       1.0000    0.58900   0.99465   0.37115   Biso      1.000     C          0.6204    
         C73       1.0000    0.17106   0.15319   0.65209   Biso      1.000     C          -0.150224           
         C74       1.0000    0.55518   0.49359   0.64485   Biso      1.000     C          -0.102464           
         C75       1.0000    0.90515   0.80266   0.39244   Biso      1.000     C          -0.08971  
         C76       1.0000    0.73257   0.50568   0.76818   Biso      1.000     C          -0.121697           
         C77       1.0000    0.79686   0.04245   0.65343   Biso      1.000     C          -0.008363           
         C78       1.0000    0.47634   0.34681   0.84791   Biso      1.000     C          -0.149022           
         C79       1.0000    0.76378   0.71826   0.42058   Biso      1.000     C          -0.101449           
         C80       1.0000    0.43472   0.49722   0.69354   Biso      1.000     C          -0.157605           
         C81       1.0000    0.08134   0.47228   0.33324   Biso      1.000     C          0.579617  
         C82       1.0000    0.62977   0.87996   0.29790   Biso      1.000     C          0.068735  
         C83       1.0000    0.71964   0.45319   0.52933   Biso      1.000     C          0.59628   
         C84       1.0000    0.73116   0.04860   0.59428   Biso      1.000     C          0.562273  
         C85       1.0000    0.15992   0.52373   0.28803   Biso      1.000     C          -0.01774  
         C86       1.0000    0.07650   0.39147   0.81233   Biso      1.000     C          -0.084708           
         C87       1.0000    0.61307   0.32883   0.84103   Biso      1.000     C          0.084981  
         C88       1.0000    0.06901   0.03309   0.26849   Biso      1.000     C          -0.073352           
         C89       1.0000    0.58622   0.45831   0.58145   Biso      1.000     C          -0.015605           
         C90       1.0000    0.37179   0.43235   0.61587   Biso      1.000     C          -0.136735           
         C91       1.0000    0.91696   0.03342   0.76526   Biso      1.000     C          0.069008  
         C92       1.0000    0.09485   0.19734   0.60756   Biso      1.000     C          -0.089704           
         C93       1.0000    0.87073   0.73884   0.43050   Biso      1.000     C          -0.022684           
         C94       1.0000    0.62416   0.80343   0.01545   Biso      1.000     C          0.59298   
         C95       1.0000    0.87426   0.39847   0.69941   Biso      1.000     C          -0.077049           
         C96       1.0000    0.28293   0.17117   0.65897   Biso      1.000     C          0.085043  
         C97       1.0000    0.62821   0.56765   0.38413   Biso      1.000     C          -0.136711           
         C98       1.0000    0.99274   0.45755   0.84657   Biso      1.000     C          -0.00795  
         C99       1.0000    0.38693   0.67117   0.15897   Biso      1.000     C          0.08496   
         C100      1.0000    0.94304   0.69657   0.48455   Biso      1.000     C          0.593391  
         C101      1.0000    0.52366   0.65319   0.15209   Biso      1.000     C          -0.149044           
         C102      1.0000    0.78436   0.53342   0.26526   Biso      1.000     C          0.066754  
         C103      1.0000    0.44482   0.50641   0.35515   Biso      1.000     C          -0.102515           
         C104      1.0000    0.61314   0.97228   0.83324   Biso      1.000     C          0.580315  
         C105      1.0000    0.21564   0.46658   0.73474   Biso      1.000     C          0.066767  
         C106      1.0000    0.01988   0.52766   0.82398   Biso      1.000     C          -0.114517           
         C107      1.0000    0.21970   0.89147   0.31233   Biso      1.000     C          -0.082631           
         C108      1.0000    0.30763   0.62004   0.20210   Biso      1.000     C          0.069093  
         C109      1.0000    0.47168   0.97627   0.21197   Biso      1.000     C          -0.017584           
         C110      1.0000    0.41378   0.54169   0.41855   Biso      1.000     C          -0.015445           
         C111      1.0000    0.56528   0.50278   0.30646   Biso      1.000     C          -0.157515           
         C112      1.0000    0.41100   0.00535   0.62885   Biso      1.000     C          0.620394  
         C113      1.0000    0.34115   0.46653   0.67997   Biso      1.000     C          0.083778  
         C114      1.0000    0.12598   0.04169   0.91855   Biso      1.000     C          -0.013741           
         C115      1.0000    0.12574   0.60153   0.30059   Biso      1.000     C          -0.077051           
         C116      1.0000    0.00809   0.88878   0.75544   Biso      1.000     C          0.622708  
         C117      1.0000    0.50699   0.57218   0.43244   Biso      1.000     C          -0.086587           
         C118      1.0000    0.80170   0.35138   0.74142   Biso      1.000     C          -0.140281           
         C119      1.0000    0.79784   0.95319   0.02933   Biso      1.000     C          0.595859  
         C120      1.0000    0.84008   0.47627   0.71197   Biso      1.000     C          -0.017727           
         Cd1       1.0000    0.24915   0.75000   0.75000   Biso      1.000     Cd          1.014974  
         Cd2       1.0000    0.50000   0.00000   0.00000   Biso      1.000     Cd          1.135256  
         Cd3       1.0000    0.05702   0.63369   0.59855   Biso      1.000     Cd          1.022634  
         Cd4       1.0000    0.94298   0.36631   0.40145   Biso      1.000     Cd          1.022633  
         Cd5       1.0000    0.37926   0.93953   0.51668   Biso      1.000     Cd          1.005119  
         Cd6       1.0000    0.78926   0.86631   0.90145   Biso      1.000     Cd          1.021922  
         Cd7       1.0000    0.33547   0.56047   0.98332   Biso      1.000     Cd          1.005555  
         Cd8       1.0000    0.00000   0.50000   0.50000   Biso      1.000     Cd          1.134807  
         Cd9       1.0000    0.66453   0.43953   0.01668   Biso      1.000     Cd          1.005463  
         Cd10      1.0000    0.75085   0.25000   0.25000   Biso      1.000     Cd          1.017011  
         Cd11      1.0000    0.62074   0.06047   0.48332   Biso      1.000     Cd          1.005023  
         Cd12      1.0000    0.21074   0.13369   0.09855   Biso      1.000     Cd          1.021942  
         H1        1.0000    0.14680   0.11080   0.67780   Biso      1.000     H          0.108409  
         H2        1.0000    0.76570   0.24900   0.87060   Biso      1.000     H          0.118275  
         H3        1.0000    0.41590   0.52050   0.73610   Biso      1.000     H          0.104737  
         H4        1.0000    0.61630   0.51500   0.65460   Biso      1.000     H          0.112388  
         H5        1.0000    0.88230   0.92790   0.65370   Biso      1.000     H          0.128934  
         H6        1.0000    0.02060   0.18430   0.60310   Biso      1.000     H          0.116054  
         H7        1.0000    0.82740   0.08770   0.89450   Biso      1.000     H          0.118757  
         H8        1.0000    0.28590   0.98500   0.84540   Biso      1.000     H          0.111702  
         H9        1.0000    0.29060   0.44220   0.22300   Biso      1.000     H          0.131701  
         H10       1.0000    0.82750   0.02050   0.23610   Biso      1.000     H          0.10384   
         H11       1.0000    0.94670   0.37800   0.66240   Biso      1.000     H          0.112004  
         H12       1.0000    0.03610   0.42790   0.15370   Biso      1.000     H          0.128752  
         H13       1.0000    0.56460   0.61080   0.17780   Biso      1.000     H          0.108743  
         H14       1.0000    0.35730   0.20060   0.76800   Biso      1.000     H          0.117547  
         H15       1.0000    0.17250   0.97950   0.76390   Biso      1.000     H          0.103872  
         H16       1.0000    0.36070   0.82610   0.05630   Biso      1.000     H          0.120095  
         H17       1.0000    0.51290   0.87800   0.16240   Biso      1.000     H          0.111543  
         H18       1.0000    0.48710   0.12200   0.83760   Biso      1.000     H          0.111538  
         H19       1.0000    0.61470   0.74900   0.37060   Biso      1.000     H          0.117045  
         H20       1.0000    0.72890   0.15590   0.67370   Biso      1.000     H          0.126667  
         H21       1.0000    0.85320   0.88920   0.32220   Biso      1.000     H          0.108386  
         H22       1.0000    0.54420   0.94220   0.72300   Biso      1.000     H          0.131014  
         H23       1.0000    0.69040   0.58770   0.39450   Biso      1.000     H          0.11809   
         H24       1.0000    0.17120   0.85160   0.23560   Biso      1.000     H          0.115583  
         H25       1.0000    0.17410   0.24620   0.11200   Biso      1.000     H          0.417031  
         H26       1.0000    0.48760   0.59600   0.47480   Biso      1.000     H          0.118329  
         H27       1.0000    0.23430   0.75100   0.12940   Biso      1.000     H          0.11826   
         H28       1.0000    0.43540   0.38920   0.82220   Biso      1.000     H          0.108763  
         H29       1.0000    0.05330   0.62200   0.33760   Biso      1.000     H          0.11201   
         H30       1.0000    0.27110   0.84410   0.32630   Biso      1.000     H          0.126678  
         H31       1.0000    0.17260   0.91230   0.10550   Biso      1.000     H          0.118783  
         H32       1.0000    0.30800   0.31570   0.89690   Biso      1.000     H          0.118034  
         H33       1.0000    0.97940   0.81570   0.39690   Biso      1.000     H          0.116049  
         H34       1.0000    0.98890   0.78010   0.67050   Biso      1.000     H          0.45029   
         H35       1.0000    0.82590   0.29940   0.73200   Biso      1.000     H          0.118162  
         H36       1.0000    0.82590   0.75380   0.88800   Biso      1.000     H          0.417011  
         H37       1.0000    0.51240   0.40400   0.52520   Biso      1.000     H          0.118297  
         H38       1.0000    0.25690   0.32610   0.55630   Biso      1.000     H          0.119484  
         H39       1.0000    0.75840   0.64840   0.26440   Biso      1.000     H          0.115201  
         H40       1.0000    0.06050   0.28010   0.17050   Biso      1.000     H          0.450672  
         H41       1.0000    0.96770   0.74620   0.61200   Biso      1.000     H          0.416418  
         H42       1.0000    0.58410   0.47950   0.26390   Biso      1.000     H          0.104703  
         H43       1.0000    0.05840   0.90400   0.02520   Biso      1.000     H          0.118959  
         H44       1.0000    0.17410   0.70060   0.26800   Biso      1.000     H          0.118161  
         H45       1.0000    0.74310   0.67390   0.44370   Biso      1.000     H          0.11949   
         H46       1.0000    0.11770   0.07210   0.34630   Biso      1.000     H          0.12895   
         H47       1.0000    0.93950   0.71990   0.82950   Biso      1.000     H          0.450708  
         H48       1.0000    0.24160   0.35160   0.73560   Biso      1.000     H          0.115192  
         H49       1.0000    0.94150   0.65590   0.17370   Biso      1.000     H          0.126709  
         H50       1.0000    0.38530   0.25100   0.62940   Biso      1.000     H          0.117057  
         H51       1.0000    0.38370   0.48500   0.34540   Biso      1.000     H          0.112399  
         H52       1.0000    0.71410   0.01500   0.15460   Biso      1.000     H          0.111711  
         H53       1.0000    0.03230   0.25380   0.38800   Biso      1.000     H          0.416435  
         H54       1.0000    0.82880   0.14840   0.76440   Biso      1.000     H          0.115575  
         H55       1.0000    0.70940   0.55780   0.77700   Biso      1.000     H          0.131717  
         H56       1.0000    0.64270   0.79940   0.23200   Biso      1.000     H          0.117546  
         H57       1.0000    0.01110   0.21990   0.32950   Biso      1.000     H          0.450254  
         H58       1.0000    0.05850   0.34410   0.82630   Biso      1.000     H          0.126701  
         H59       1.0000    0.69200   0.68430   0.10310   Biso      1.000     H          0.118028  
         H60       1.0000    0.63930   0.17390   0.94370   Biso      1.000     H          0.120087  
         H61       1.0000    0.45580   0.05780   0.27700   Biso      1.000     H          0.130999  
         H62       1.0000    0.96390   0.57210   0.84630   Biso      1.000     H          0.128738  
         H63       1.0000    0.30960   0.41230   0.60550   Biso      1.000     H          0.118069  
         H64       1.0000    0.94160   0.09600   0.97480   Biso      1.000     H          0.118927  
         O1        1.0000    0.11066   0.40283   0.31785   Biso      1.000     O          -0.533221           
         O2        1.0000    0.43301   0.13321   0.01237   Biso      1.000     O          -0.618482           
         O3        1.0000    0.57349   0.96296   0.43300   Biso      1.000     O          -0.584074           
         O4        1.0000    0.85385   0.38684   0.92522   Biso      1.000     O          -0.543425           
         O5        1.0000    0.85915   0.90796   0.98034   Biso      1.000     O          -0.559091           
         O6        1.0000    0.74759   0.77417   0.99585   Biso      1.000     O          -0.558344           
         O7        1.0000    0.85821   0.74555   0.84423   Biso      1.000     O          -0.820289           
         O8        1.0000    0.84669   0.34745   0.20857   Biso      1.000     O          -0.554119           
         O9        1.0000    0.94799   0.75445   0.65577   Biso      1.000     O          -0.819185           
         O10       1.0000    0.62902   0.99978   0.88534   Biso      1.000     O          -0.616474           
         O11       1.0000    0.32269   0.00539   0.96063   Biso      1.000     O          -0.581359           
         O12       1.0000    0.25241   0.22583   0.00415   Biso      1.000     O          -0.558333           
         O13       1.0000    0.09729   0.84745   0.70857   Biso      1.000     O          -0.552887           
         O14       1.0000    0.25621   0.01245   0.43593   Biso      1.000     O          -0.558873           
         O15       1.0000    0.14615   0.61316   0.07478   Biso      1.000     O          -0.543421           
         O16       1.0000    0.78871   0.49461   0.53937   Biso      1.000     O          -0.580365           
         O17       1.0000    0.15331   0.65255   0.79143   Biso      1.000     O          -0.553819           
         O18       1.0000    0.37967   0.94349   0.64117   Biso      1.000     O          -0.551975           
         O19       1.0000    0.79541   0.51245   0.93593   Biso      1.000     O          -0.559782           
         O20       1.0000    0.20459   0.48755   0.06407   Biso      1.000     O          -0.559788           
         O21       1.0000    0.88934   0.59717   0.68215   Biso      1.000     O          -0.533176           
         O22       1.0000    0.37098   0.00022   0.11466   Biso      1.000     O          -0.616472           
         O23       1.0000    0.53055   0.46296   0.93300   Biso      1.000     O          -0.584408           
         O24       1.0000    0.17070   0.63250   0.68088   Biso      1.000     O          -0.560798           
         O25       1.0000    0.66866   0.90283   0.81785   Biso      1.000     O          -0.533832           
         O26       1.0000    0.56699   0.86679   0.98763   Biso      1.000     O          -0.618479           
         O27       1.0000    0.21129   0.50539   0.46063   Biso      1.000     O          -0.580301           
         O28       1.0000    0.67731   0.99461   0.03937   Biso      1.000     O          -0.581121           
         O29       1.0000    0.24745   0.59204   0.51966   Biso      1.000     O          -0.558932           
         O30       1.0000    0.98586   0.49978   0.38534   Biso      1.000     O          -0.616815           
         O31       1.0000    0.01761   0.72583   0.50415   Biso      1.000     O          -0.559477           
         O32       1.0000    0.07859   0.36679   0.48763   Biso      1.000     O          -0.617999           
         O33       1.0000    0.62033   0.05651   0.35883   Biso      1.000     O          -0.552018           
         O34       1.0000    0.14085   0.09204   0.01966   Biso      1.000     O          -0.559393           
         O35       1.0000    0.98408   0.86750   0.81912   Biso      1.000     O          -0.559421           
         O36       1.0000    0.33134   0.09717   0.18215   Biso      1.000     O          -0.533883           
         O37       1.0000    0.05201   0.24555   0.34423   Biso      1.000     O          -0.819179           
         O38       1.0000    0.01592   0.13250   0.18088   Biso      1.000     O          -0.559451           
         O39       1.0000    0.66591   0.11316   0.57478   Biso      1.000     O          -0.54185  
         O40       1.0000    0.74379   0.98755   0.56407   Biso      1.000     O          -0.558867           
         O41       1.0000    0.53567   0.44349   0.14117   Biso      1.000     O          -0.552758           
         O42       1.0000    0.98239   0.27417   0.49585   Biso      1.000     O          -0.559452           
         O43       1.0000    0.75255   0.40796   0.48034   Biso      1.000     O          -0.559124           
         O44       1.0000    0.46433   0.55651   0.85883   Biso      1.000     O          -0.552719           
         O45       1.0000    0.01414   0.50022   0.61466   Biso      1.000     O          -0.61682  
         O46       1.0000    0.82930   0.36750   0.31912   Biso      1.000     O          -0.560836           
         O47       1.0000    0.33409   0.88684   0.42522   Biso      1.000     O          -0.54184  
         O48       1.0000    0.90271   0.15255   0.29143   Biso      1.000     O          -0.553182           
         O49       1.0000    0.14179   0.25445   0.15577   Biso      1.000     O          -0.820282           
         O50       1.0000    0.42651   0.03704   0.56700   Biso      1.000     O          -0.584111           
         O51       1.0000    0.92141   0.63321   0.51237   Biso      1.000     O          -0.618036           
         O52       1.0000    0.46945   0.53704   0.06700   Biso      1.000     O          -0.584372 