
##########################################################################
#               Crystallographic Information Format file
#               Produced by PyCifRW module
#
#  This is a CIF file.  CIF has been adopted by the International
#  Union of Crystallography as the standard for data archiving and
#  transmission.
#
#  For information on this file format, follow the CIF links at
#  http://www.iucr.org
##########################################################################

data_image0

_cell_length_a                          8.7578
_cell_length_b                          11.143
_cell_length_c                          12.529
_cell_angle_alpha                       84.479
_cell_angle_beta                        81.501
_cell_angle_gamma                       71.648
_symmetry_space_group_name_H-M          'P 1'
_symmetry_int_tables_number             1
loop_
  _symmetry_equiv_pos_as_xyz
         'x, y, z' 
loop_
  _atom_site_label
  _atom_site_occupancy
  _atom_site_fract_x
  _atom_site_fract_y
  _atom_site_fract_z
  _atom_site_thermal_displace_type
  _atom_site_B_iso_or_equiv
  _atom_site_type_symbol
  _atom_site_charge
         C1        1.0000    0.68130   0.12640   0.43751   Biso      1.000     C          -0.10855899999999999          
         C2        1.0000    0.29760   0.11200   0.77589   Biso      1.000     C          -0.235134           
         C3        1.0000    0.28010   0.16920   0.67554   Biso      1.000     C          -0.153044           
         C4        1.0000    0.41410   0.15450   0.59492   Biso      1.000     C          0.071439  
         C5        1.0000    0.39960   0.22270   0.49352   Biso      1.000     C          -0.180125           
         C6        1.0000    0.53130   0.21180   0.41676   Biso      1.000     C          -0.021372           
         C7        1.0000    0.13900   0.93200   0.20990   Biso      1.000     C          -0.287492           
         C8        1.0000    0.70000   0.05660   0.53341   Biso      1.000     C          -0.178244           
         C9        1.0000    0.56730   0.07040   0.61672   Biso      1.000     C          0.046109  
         C10       1.0000    0.58320   0.00700   0.72130   Biso      1.000     C          -0.104465           
         C11       1.0000    0.73730   0.90940   0.74676   Biso      1.000     C          -0.149263           
         C12       1.0000    0.96510   0.84680   0.85146   Biso      1.000     C          -0.302815           
         C13       1.0000    0.91850   0.74570   0.92736   Biso      1.000     C          0.63862   
         C14       1.0000    0.86100   0.06800   0.79010   Biso      1.000     C          -0.287485           
         C15       1.0000    0.84940   0.14550   0.88619   Biso      1.000     C          0.644452  
         C16       1.0000    0.52050   0.29290   0.31370   Biso      1.000     C          0.594371  
         C17       1.0000    0.49860   0.64180   0.21760   Biso      1.000     C          -0.183221           
         C18       1.0000    0.54860   0.96570   0.19879   Biso      1.000     C          0.29741999999999996           
         C19       1.0000    0.70240   0.88800   0.22411   Biso      1.000     C          -0.235118           
         C20       1.0000    0.71990   0.83080   0.32446   Biso      1.000     C          -0.153041           
         C21       1.0000    0.58590   0.84550   0.40508   Biso      1.000     C          0.071449  
         C22       1.0000    0.60040   0.77730   0.50648   Biso      1.000     C          -0.180104           
         C23       1.0000    0.46870   0.78820   0.58324   Biso      1.000     C          -0.021336           
         C24       1.0000    0.31870   0.87360   0.56249   Biso      1.000     C          -0.108526           
         C25       1.0000    0.30000   0.94340   0.46659   Biso      1.000     C          -0.17821900000000002          
         C26       1.0000    0.43270   0.92960   0.38328   Biso      1.000     C          0.046114999999999996          
         C27       1.0000    0.41680   0.99300   0.27870   Biso      1.000     C          -0.10445  
         C28       1.0000    0.26270   0.09060   0.25324   Biso      1.000     C          -0.149265           
         C29       1.0000    0.45140   0.03430   0.80121   Biso      1.000     C          0.297402  
         C30       1.0000    0.03490   0.15320   0.14854   Biso      1.000     C          -0.302815           
         C31       1.0000    0.08150   0.25430   0.07264   Biso      1.000     C          0.638629  
         C32       1.0000    0.50140   0.35820   0.78240   Biso      1.000     C          -0.18321500000000002          
         C33       1.0000    0.47950   0.70710   0.68630   Biso      1.000     C          0.594362  
         C34       1.0000    0.15060   0.85450   0.11381   Biso      1.000     C          0.644465  
         Cu1       1.0000    0.67967   0.97719   0.96804   Biso      1.000     Cu          0.813179  
         Cu2       1.0000    0.32033   0.02281   0.03196   Biso      1.000     Cu          0.813236  
         H1        1.0000    0.96480   0.11970   0.11530   Biso      1.000     H          0.151426  
         H2        1.0000    0.78710   0.11770   0.74030   Biso      1.000     H          0.149104  
         H3        1.0000    0.97020   0.04680   0.75220   Biso      1.000     H          0.147106  
         H4        1.0000    0.03520   0.88030   0.88470   Biso      1.000     H          0.15140599999999999           
         H5        1.0000    0.02470   0.80930   0.78500   Biso      1.000     H          0.149009  
         H6        1.0000    0.71340   0.83240   0.77540   Biso      1.000     H          0.127527  
         H7        1.0000    0.77040   0.11710   0.38480   Biso      1.000     H          0.1039    
         H8        1.0000    0.80050   0.99940   0.54420   Biso      1.000     H          0.10766700000000001           
         H9        1.0000    0.34000   0.40500   0.13500   Biso      1.000     H          0.480655  
         H10       1.0000    0.29860   0.27600   0.47880   Biso      1.000     H          0.119501  
         H11       1.0000    0.17790   0.21890   0.65990   Biso      1.000     H          0.107919  
         H12       1.0000    0.20780   0.12410   0.82820   Biso      1.000     H          0.11103699999999998           
         H13       1.0000    0.81080   0.89010   0.68040   Biso      1.000     H          0.11483199999999999           
         H14       1.0000    0.97530   0.19070   0.21500   Biso      1.000     H          0.149033  
         H15       1.0000    0.31900   0.36700   0.04900   Biso      1.000     H          0.47053900000000004           
         H16       1.0000    0.48380   0.66820   0.29010   Biso      1.000     H          0.11713399999999999           
         H17       1.0000    0.02980   0.95320   0.24780   Biso      1.000     H          0.147143  
         H18       1.0000    0.21290   0.88230   0.25970   Biso      1.000     H          0.149132  
         H19       1.0000    0.28660   0.16760   0.22460   Biso      1.000     H          0.127549  
         H20       1.0000    0.68100   0.63300   0.95100   Biso      1.000     H          0.47053199999999995           
         H21       1.0000    0.34680   0.51070   0.75720   Biso      1.000     H          0.385884  
         H22       1.0000    0.51620   0.33180   0.70990   Biso      1.000     H          0.11712   
         H23       1.0000    0.58640   0.39210   0.79150   Biso      1.000     H          0.107252  
         H24       1.0000    0.65320   0.48930   0.24280   Biso      1.000     H          0.385887  
         H25       1.0000    0.50470   0.28680   0.83240   Biso      1.000     H          0.11976300000000001           
         H26       1.0000    0.19950   0.00060   0.45580   Biso      1.000     H          0.107677  
         H27       1.0000    0.22960   0.88290   0.61520   Biso      1.000     H          0.10391500000000001           
         H28       1.0000    0.70140   0.72400   0.52120   Biso      1.000     H          0.119525  
         H29       1.0000    0.82210   0.78110   0.34010   Biso      1.000     H          0.10794000000000001           
         H30       1.0000    0.79220   0.87590   0.17180   Biso      1.000     H          0.111044  
         H31       1.0000    0.49530   0.71320   0.16760   Biso      1.000     H          0.119771  
         H32       1.0000    0.41360   0.60790   0.20850   Biso      1.000     H          0.10726500000000001           
         H33       1.0000    0.18920   0.10990   0.31960   Biso      1.000     H          0.114853  
         H34       1.0000    0.66000   0.59500   0.86500   Biso      1.000     H          0.480655  
         K1        1.0000    0.31930   0.64005   0.95310   Biso      1.000     K          0.8680180000000001  
         K2        1.0000    0.05565   0.41460   0.84968   Biso      1.000     K          0.887818  
         K3        1.0000    0.68070   0.35995   0.04690   Biso      1.000     K          0.867981  
         K4        1.0000    0.94435   0.58540   0.15032   Biso      1.000     K          0.88784   
         N1        1.0000    0.81980   0.95062   0.82644   Biso      1.000     N          -0.038887           
         N2        1.0000    0.18020   0.04938   0.17356   Biso      1.000     N          -0.038873000000000005         
         O1        1.0000    0.35020   0.69210   0.73392   Biso      1.000     O          -0.674379           
         O2        1.0000    0.61510   0.65740   0.71805   Biso      1.000     O          -0.6394   
         O3        1.0000    0.09440   0.76533   0.12629   Biso      1.000     O          -0.6307619999999999           
         O4        1.0000    0.22500   0.88531   0.02459   Biso      1.000     O          -0.616722           
         O5        1.0000    0.98520   0.36224   0.07047   Biso      1.000     O          -0.68699  
         O6        1.0000    0.21767   0.21889   0.01322   Biso      1.000     O          -0.608577           
         O7        1.0000    0.52955   0.01438   0.09760   Biso      1.000     O          -0.5566760000000001           
         O8        1.0000    0.64880   0.54880   0.19820   Biso      1.000     O          -0.566975           
         O9        1.0000    0.64980   0.30790   0.26608   Biso      1.000     O          -0.674427           
         O10       1.0000    0.65650   0.57910   0.92609   Biso      1.000     O          -1.008635           
         O11       1.0000    0.38490   0.34260   0.28195   Biso      1.000     O          -0.63947  
         O12       1.0000    0.90560   0.23467   0.87371   Biso      1.000     O          -0.630804           
         O13       1.0000    0.77500   0.11469   0.97541   Biso      1.000     O          -0.6167699999999999           
         O14       1.0000    0.01480   0.63776   0.92953   Biso      1.000     O          -0.687026           
         O15       1.0000    0.78233   0.78111   0.98678   Biso      1.000     O          -0.608612           
         O16       1.0000    0.47045   0.98562   0.90240   Biso      1.000     O          -0.556687           
         O17       1.0000    0.34350   0.42090   0.07391   Biso      1.000     O          -1.008631           
         O18       1.0000    0.35120   0.45120   0.80180   Biso      1.000     O          -0.5669930000000001 