
##########################################################################
#               Crystallographic Information Format file
#               Produced by PyCifRW module
#
#  This is a CIF file.  CIF has been adopted by the International
#  Union of Crystallography as the standard for data archiving and
#  transmission.
#
#  For information on this file format, follow the CIF links at
#  http://www.iucr.org
##########################################################################

data_image0

_cell_length_a                          12.3825
_cell_length_b                          13.0128
_cell_length_c                          15.3729
_cell_angle_alpha                       91.351
_cell_angle_beta                        94.864
_cell_angle_gamma                       98.73
_symmetry_space_group_name_H-M          'P 1'
_symmetry_int_tables_number             1
loop_
  _symmetry_equiv_pos_as_xyz
         'x, y, z' 
loop_
  _atom_site_label
  _atom_site_occupancy
  _atom_site_fract_x
  _atom_site_fract_y
  _atom_site_fract_z
  _atom_site_thermal_displace_type
  _atom_site_B_iso_or_equiv
  _atom_site_type_symbol
  _atom_site_charge
         C1        1.0000    0.10930   0.26040   0.40170   Biso      1.000     C          -0.558532           
         C2        1.0000    0.42320   0.15060   0.30910   Biso      1.000     C          -0.148744           
         C3        1.0000    0.81320   0.05990   0.77590   Biso      1.000     C          -0.038095           
         C4        1.0000    0.77640   0.47170   0.65870   Biso      1.000     C          -0.220773           
         C5        1.0000    0.89070   0.73960   0.59830   Biso      1.000     C          -0.558532           
         C6        1.0000    0.64100   0.94400   0.52800   Biso      1.000     C          -0.521319           
         C7        1.0000    0.12680   0.49820   0.27200   Biso      1.000     C          -0.242241           
         C8        1.0000    0.05140   0.40960   0.31140   Biso      1.000     C          0.028925  
         C9        1.0000    0.01990   0.67340   0.74700   Biso      1.000     C          0.631933  
         C10       1.0000    0.56430   0.25600   0.97080   Biso      1.000     C          0.023577  
         C11       1.0000    0.57680   0.84940   0.69090   Biso      1.000     C          -0.148744           
         C12       1.0000    0.40270   0.82180   0.76330   Biso      1.000     C          0.063924  
         C13       1.0000    0.85070   0.64270   0.65130   Biso      1.000     C          0.226889  
         C14       1.0000    0.07480   0.11020   0.92070   Biso      1.000     C          -0.144865           
         C15       1.0000    0.15960   0.89220   0.30030   Biso      1.000     C          0.092476  
         C16       1.0000    0.59730   0.17820   0.23670   Biso      1.000     C          0.063924  
         C17       1.0000    0.69730   0.98730   0.61750   Biso      1.000     C          0.082524  
         C18       1.0000    0.57170   0.80950   0.14700   Biso      1.000     C          -0.205632           
         C19       1.0000    0.85650   0.96610   0.08430   Biso      1.000     C          -0.040272           
         C20       1.0000    0.35900   0.05600   0.47200   Biso      1.000     C          -0.521319           
         C21       1.0000    0.84040   0.10780   0.69970   Biso      1.000     C          0.092476  
         C22       1.0000    0.62980   0.43080   0.91280   Biso      1.000     C          -0.539822           
         C23       1.0000    0.14350   0.03390   0.91570   Biso      1.000     C          -0.040272           
         C24       1.0000    0.32190   0.42210   0.46760   Biso      1.000     C          0.632044  
         C25       1.0000    0.48520   0.67730   0.95990   Biso      1.000     C          -0.522895           
         C26       1.0000    0.78500   0.06980   0.62190   Biso      1.000     C          -0.052308           
         C27       1.0000    0.27370   0.02130   0.22570   Biso      1.000     C          0.09746   
         C28       1.0000    0.77350   0.68300   0.71270   Biso      1.000     C          -0.528281           
         C29       1.0000    0.12590   0.89760   0.13760   Biso      1.000     C          -0.153287           
         C30       1.0000    0.33210   0.06020   0.30500   Biso      1.000     C          -0.041048           
         C31       1.0000    0.59140   0.31570   0.88930   Biso      1.000     C          0.236726  
         C32       1.0000    0.94580   0.18800   0.70150   Biso      1.000     C          -0.513095           
         C33       1.0000    0.26210   0.74540   0.56400   Biso      1.000     C          -0.119461           
         C34       1.0000    0.51480   0.32270   0.04010   Biso      1.000     C          -0.522895           
         C35       1.0000    0.18960   0.87250   0.46260   Biso      1.000     C          -0.152412           
         C36       1.0000    0.67220   0.04190   0.27490   Biso      1.000     C          -0.033698           
         C37       1.0000    0.51070   0.84420   0.06340   Biso      1.000     C          -0.235446           
         C38       1.0000    0.66790   0.93980   0.69500   Biso      1.000     C          -0.041048           
         C39       1.0000    0.92520   0.88980   0.07930   Biso      1.000     C          -0.144864           
         C40       1.0000    0.56850   0.03340   0.31130   Biso      1.000     C          -0.142774           
         C41       1.0000    0.30860   0.07480   0.14290   Biso      1.000     C          -0.524082           
         C42       1.0000    0.22030   0.44180   0.40770   Biso      1.000     C          -0.195461           
         C43       1.0000    0.32350   0.72220   0.16250   Biso      1.000     C          -0.530913           
         C44       1.0000    0.67810   0.57790   0.53240   Biso      1.000     C          0.632044  
         C45       1.0000    0.48930   0.15580   0.93660   Biso      1.000     C          -0.235446           
         C46       1.0000    0.33420   0.76240   0.97140   Biso      1.000     C          0.582627  
         C47       1.0000    0.77970   0.55820   0.59230   Biso      1.000     C          -0.195461           
         C48       1.0000    0.87410   0.10240   0.86240   Biso      1.000     C          -0.153287           
         C49       1.0000    0.42830   0.19050   0.85300   Biso      1.000     C          -0.205632           
         C50       1.0000    0.00350   0.04060   0.14820   Biso      1.000     C          0.066012  
         C51       1.0000    0.22650   0.31700   0.28730   Biso      1.000     C          -0.528281           
         C52       1.0000    0.69140   0.92520   0.85710   Biso      1.000     C          -0.524082           
         C53       1.0000    0.67650   0.27780   0.83750   Biso      1.000     C          -0.530913           
         C54       1.0000    0.32780   0.95810   0.72510   Biso      1.000     C          -0.033698           
         C55       1.0000    0.05420   0.81200   0.29850   Biso      1.000     C          -0.513095           
         C56       1.0000    0.47370   0.30180   0.83750   Biso      1.000     C          -0.187866           
         C57       1.0000    0.14930   0.35730   0.34870   Biso      1.000     C          0.22689   
         C58       1.0000    0.22360   0.52830   0.34130   Biso      1.000     C          -0.220772           
         C59       1.0000    0.34110   0.76880   0.43750   Biso      1.000     C          0.026224  
         C60       1.0000    0.65890   0.23120   0.56250   Biso      1.000     C          0.026224  
         C61       1.0000    0.30270   0.01270   0.38250   Biso      1.000     C          0.082523  
         C62       1.0000    0.66580   0.23760   0.02860   Biso      1.000     C          0.582627  
         C63       1.0000    0.65880   0.31720   0.44580   Biso      1.000     C          -0.02034  
         C64       1.0000    0.00860   0.54290   0.61690   Biso      1.000     C          -0.502359           
         C65       1.0000    0.99140   0.45710   0.38310   Biso      1.000     C          -0.502358           
         C66       1.0000    0.18680   0.94010   0.22410   Biso      1.000     C          -0.038095           
         C67       1.0000    0.81040   0.12750   0.53740   Biso      1.000     C          -0.152413           
         C68       1.0000    0.52630   0.69820   0.16250   Biso      1.000     C          -0.187866           
         C69       1.0000    0.87320   0.50180   0.72800   Biso      1.000     C          -0.24224  
         C70       1.0000    0.98010   0.32660   0.25300   Biso      1.000     C          0.631933  
         C71       1.0000    0.43150   0.96660   0.68870   Biso      1.000     C          -0.142774           
         C72       1.0000    0.72630   0.97870   0.77430   Biso      1.000     C          0.097458  
         C73       1.0000    0.34120   0.68280   0.55420   Biso      1.000     C          -0.020334           
         C74       1.0000    0.99650   0.95940   0.85180   Biso      1.000     C          0.066013  
         C75       1.0000    0.94860   0.59040   0.68860   Biso      1.000     C          0.028926  
         C76       1.0000    0.37020   0.56920   0.08720   Biso      1.000     C          -0.539822           
         C77       1.0000    0.43570   0.74400   0.02920   Biso      1.000     C          0.023577  
         C78       1.0000    0.47680   0.32640   0.74260   Biso      1.000     C          0.640578  
         C79       1.0000    0.40860   0.68430   0.11070   Biso      1.000     C          0.236727  
         C80       1.0000    0.73790   0.25460   0.43600   Biso      1.000     C          -0.119455           
         C81       1.0000    0.52320   0.67360   0.25740   Biso      1.000     C          0.640578  
         C82       1.0000    0.21500   0.93020   0.37810   Biso      1.000     C          -0.052309           
         Cd1       1.0000    0.50831   0.61494   0.42338   Biso      1.000     Cd          0.920662  
         Cd2       1.0000    0.82384   0.19277   0.14949   Biso      1.000     Cd          0.868138  
         Cd3       1.0000    0.49169   0.38506   0.57662   Biso      1.000     Cd          0.920662  
         Cd4       1.0000    0.17616   0.80723   0.85051   Biso      1.000     Cd          0.868138  
         H1        1.0000    0.25750   0.72310   0.12500   Biso      1.000     H          0.160537  
         H2        1.0000    0.99230   0.41500   0.43350   Biso      1.000     H          0.150953  
         H3        1.0000    0.88380   0.16670   0.54620   Biso      1.000     H          0.120753  
         H4        1.0000    0.78230   0.25150   0.39050   Biso      1.000     H          0.146411  
         H5        1.0000    0.21790   0.59400   0.37040   Biso      1.000     H          0.083761  
         H6        1.0000    0.68530   0.97690   0.90130   Biso      1.000     H          0.177558  
         H7        1.0000    0.17000   0.46100   0.44900   Biso      1.000     H          0.09125   
         H8        1.0000    0.11080   0.82230   0.13760   Biso      1.000     H          0.134937  
         H9        1.0000    0.69190   0.32350   0.79050   Biso      1.000     H          0.159404  
         H10       1.0000    0.01280   0.82770   0.34590   Biso      1.000     H          0.172244  
         H11       1.0000    0.72070   0.71330   0.68040   Biso      1.000     H          0.164073  
         H12       1.0000    0.53720   0.98090   0.34540   Biso      1.000     H          0.13881   
         H13       1.0000    0.93500   0.79170   0.63670   Biso      1.000     H          0.150106  
         H14       1.0000    0.94300   0.90850   0.82400   Biso      1.000     H          0.104336  
         H15       1.0000    0.81930   0.73940   0.75200   Biso      1.000     H          0.139811  
         H16       1.0000    0.15180   0.47470   0.21790   Biso      1.000     H          0.117771  
         H17       1.0000    0.82950   0.08250   0.91000   Biso      1.000     H          0.129501  
         H18       1.0000    0.07310   0.74360   0.30450   Biso      1.000     H          0.173287  
         H19       1.0000    0.54130   0.64360   0.98870   Biso      1.000     H          0.150507  
         H20       1.0000    0.33180   0.01190   0.51710   Biso      1.000     H          0.156913  
         H21       1.0000    0.18070   0.26060   0.24800   Biso      1.000     H          0.13981   
         H22       1.0000    0.74520   0.88350   0.87770   Biso      1.000     H          0.170879  
         H23       1.0000    0.43210   0.53640   0.07550   Biso      1.000     H          0.154777  
         H24       1.0000    0.02790   0.52630   0.39900   Biso      1.000     H          0.159272  
         H25       1.0000    0.98720   0.17230   0.65410   Biso      1.000     H          0.172243  
         H26       1.0000    0.84820   0.52530   0.78210   Biso      1.000     H          0.11777   
         H27       1.0000    0.74720   0.62890   0.74690   Biso      1.000     H          0.172218  
         H28       1.0000    0.41300   0.75920   0.78810   Biso      1.000     H          0.119186  
         H29       1.0000    0.64710   0.21100   0.61900   Biso      1.000     H          0.119083  
         H30       1.0000    0.56790   0.46360   0.92450   Biso      1.000     H          0.154777  
         H31       1.0000    0.17160   0.23280   0.42760   Biso      1.000     H          0.152163  
         H32       1.0000    0.78210   0.40600   0.62960   Biso      1.000     H          0.083761  
         H33       1.0000    0.11620   0.83330   0.45380   Biso      1.000     H          0.120753  
         H34       1.0000    0.56160   0.86930   0.02130   Biso      1.000     H          0.108299  
         H35       1.0000    0.59830   0.79650   0.72930   Biso      1.000     H          0.12763   
         H36       1.0000    0.43800   0.14650   0.80340   Biso      1.000     H          0.092239  
         H37       1.0000    0.64540   0.36810   0.40650   Biso      1.000     H          0.115919  
         H38       1.0000    0.81000   0.07620   0.49060   Biso      1.000     H          0.121242  
         H39       1.0000    0.91150   0.82370   0.05280   Biso      1.000     H          0.158009  
         H40       1.0000    0.83000   0.53900   0.55100   Biso      1.000     H          0.09125   
         H41       1.0000    0.64960   0.81580   0.14010   Biso      1.000     H          0.088658  
         H42       1.0000    0.08850   0.17630   0.94720   Biso      1.000     H          0.158008  
         H43       1.0000    0.57070   0.65260   0.13500   Biso      1.000     H          0.103418  
         H44       1.0000    0.08870   0.55690   0.26030   Biso      1.000     H          0.105229  
         H45       1.0000    0.72110   0.99430   0.28090   Biso      1.000     H          0.124816  
         H46       1.0000    0.33530   0.53640   0.13500   Biso      1.000     H          0.156493  
         H47       1.0000    0.51620   0.72210   0.91670   Biso      1.000     H          0.143438  
         H48       1.0000    0.25280   0.37110   0.25310   Biso      1.000     H          0.172219  
         H49       1.0000    0.92690   0.25640   0.69550   Biso      1.000     H          0.173287  
         H50       1.0000    0.42930   0.34740   0.86500   Biso      1.000     H          0.103418  
         H51       1.0000    0.68120   0.43760   0.96380   Biso      1.000     H          0.161685  
         H52       1.0000    0.56490   0.81950   0.63180   Biso      1.000     H          0.120711  
         H53       1.0000    0.08310   0.54050   0.63870   Biso      1.000     H          0.168766  
         H54       1.0000    0.25480   0.11650   0.12230   Biso      1.000     H          0.170879  
         H55       1.0000    0.48380   0.27790   0.08330   Biso      1.000     H          0.143438  
         H56       1.0000    0.53180   0.10160   0.92310   Biso      1.000     H          0.117983  
         H57       1.0000    0.21600   0.04420   0.93970   Biso      1.000     H          0.107728  
         H58       1.0000    0.35290   0.78900   0.38100   Biso      1.000     H          0.119083  
         H59       1.0000    0.88920   0.17770   0.86240   Biso      1.000     H          0.134937  
         H60       1.0000    0.21770   0.74850   0.60950   Biso      1.000     H          0.146412  
         H61       1.0000    0.66470   0.46360   0.86500   Biso      1.000     H          0.156494  
         H62       1.0000    0.37830   0.11830   0.15570   Biso      1.000     H          0.15966   
         H63       1.0000    0.82840   0.76720   0.57240   Biso      1.000     H          0.152163  
         H64       1.0000    0.70780   0.46420   0.68570   Biso      1.000     H          0.103516  
         H65       1.0000    0.19000   0.92380   0.50940   Biso      1.000     H          0.121242  
         H66       1.0000    0.91130   0.44310   0.73970   Biso      1.000     H          0.105229  
         H67       1.0000    0.06500   0.20830   0.36330   Biso      1.000     H          0.150106  
         H68       1.0000    0.43840   0.13070   0.97870   Biso      1.000     H          0.108299  
         H69       1.0000    0.06670   0.28030   0.44670   Biso      1.000     H          0.148877  
         H70       1.0000    0.43510   0.18050   0.36820   Biso      1.000     H          0.120711  
         H71       1.0000    0.98920   0.18500   0.75590   Biso      1.000     H          0.16411   
         H72       1.0000    0.35040   0.18420   0.85990   Biso      1.000     H          0.088658  
         H73       1.0000    0.31880   0.56240   0.03620   Biso      1.000     H          0.161686  
         H74       1.0000    0.91690   0.45950   0.36130   Biso      1.000     H          0.168766  
         H75       1.0000    0.17050   0.91750   0.09000   Biso      1.000     H          0.129501  
         H76       1.0000    0.27890   0.00570   0.71910   Biso      1.000     H          0.124816  
         H77       1.0000    0.93330   0.71970   0.55330   Biso      1.000     H          0.148876  
         H78       1.0000    0.40170   0.20350   0.27070   Biso      1.000     H          0.12763   
         H79       1.0000    0.29220   0.53580   0.31430   Biso      1.000     H          0.103515  
         H80       1.0000    0.74250   0.27690   0.87500   Biso      1.000     H          0.160539  
         H81       1.0000    0.34330   0.12500   0.48240   Biso      1.000     H          0.181362  
         H82       1.0000    0.56200   0.85350   0.19660   Biso      1.000     H          0.092239  
         H83       1.0000    0.43680   0.05790   0.47230   Biso      1.000     H          0.162075  
         H84       1.0000    0.64940   0.20870   0.81420   Biso      1.000     H          0.153199  
         H85       1.0000    0.35060   0.79130   0.18580   Biso      1.000     H          0.153198  
         H86       1.0000    0.56320   0.94210   0.52770   Biso      1.000     H          0.162075  
         H87       1.0000    0.00770   0.58500   0.56650   Biso      1.000     H          0.150954  
         H88       1.0000    0.42810   0.62590   0.93210   Biso      1.000     H          0.167866  
         H89       1.0000    0.57190   0.37410   0.06790   Biso      1.000     H          0.167867  
         H90       1.0000    0.66820   0.98810   0.48290   Biso      1.000     H          0.156913  
         H91       1.0000    0.46280   0.01910   0.65460   Biso      1.000     H          0.13881   
         H92       1.0000    0.78400   0.95580   0.06030   Biso      1.000     H          0.107729  
         H93       1.0000    0.65670   0.87500   0.51760   Biso      1.000     H          0.181362  
         H94       1.0000    0.27930   0.28670   0.31960   Biso      1.000     H          0.164073  
         H95       1.0000    0.31470   0.02310   0.09870   Biso      1.000     H          0.177558  
         H96       1.0000    0.62170   0.88170   0.84430   Biso      1.000     H          0.15966   
         H97       1.0000    0.58700   0.24080   0.21190   Biso      1.000     H          0.119186  
         H98       1.0000    0.35460   0.63190   0.59350   Biso      1.000     H          0.115919  
         H99       1.0000    0.97210   0.47370   0.60100   Biso      1.000     H          0.159273  
         H100      1.0000    0.46820   0.89840   0.07690   Biso      1.000     H          0.117984  
         H101      1.0000    0.05700   0.09150   0.17600   Biso      1.000     H          0.104336  
         H102      1.0000    0.45870   0.35640   0.01130   Biso      1.000     H          0.150507  
         H103      1.0000    0.01080   0.81500   0.24410   Biso      1.000     H          0.16411   
         H104      1.0000    0.30810   0.67650   0.20950   Biso      1.000     H          0.159405  
         N1        1.0000    0.52490   0.12170   0.28400   Biso      1.000     N          0.073198  
         N2        1.0000    0.98100   0.05820   0.87470   Biso      1.000     N          0.053276  
         N3        1.0000    0.73480   0.19840   0.50970   Biso      1.000     N          0.082616  
         N4        1.0000    0.09690   0.94750   0.87470   Biso      1.000     N          -0.250954           
         N5        1.0000    0.26520   0.80160   0.49030   Biso      1.000     N          0.082617  
         N6        1.0000    0.47510   0.87830   0.71600   Biso      1.000     N          0.073198  
         N7        1.0000    0.01900   0.94180   0.12530   Biso      1.000     N          0.053276  
         N8        1.0000    0.31280   0.86820   0.77020   Biso      1.000     N          -0.266811           
         N9        1.0000    0.60440   0.29960   0.51410   Biso      1.000     N          -0.278621           
         N10       1.0000    0.39560   0.70040   0.48590   Biso      1.000     N          -0.278622           
         N11       1.0000    0.90310   0.05250   0.12530   Biso      1.000     N          -0.250954           
         N12       1.0000    0.68720   0.13180   0.22980   Biso      1.000     N          -0.266812           
         O1        1.0000    0.52940   0.74560   0.31180   Biso      1.000     O          -0.608818           
         O2        1.0000    0.09250   0.72680   0.72320   Biso      1.000     O          -0.565943           
         O3        1.0000    0.70060   0.15240   0.01990   Biso      1.000     O          -0.623942           
         O4        1.0000    0.68920   0.62760   0.46610   Biso      1.000     O          -0.555269           
         O5        1.0000    0.90750   0.27320   0.27680   Biso      1.000     O          -0.565943           
         O6        1.0000    0.50270   0.58340   0.28240   Biso      1.000     O          -0.588593           
         O7        1.0000    0.41430   0.44930   0.44430   Biso      1.000     O          -0.586354           
         O8        1.0000    0.71580   0.30380   0.08160   Biso      1.000     O          -0.556268           
         O9        1.0000    0.31080   0.37240   0.53390   Biso      1.000     O          -0.555269           
         O10       1.0000    0.58570   0.55070   0.55570   Biso      1.000     O          -0.586354           
         O11       1.0000    0.29940   0.84760   0.98010   Biso      1.000     O          -0.623942           
         O12       1.0000    0.01440   0.69480   0.82790   Biso      1.000     O          -0.665652           
         O13       1.0000    0.47060   0.25440   0.68820   Biso      1.000     O          -0.608818           
         O14       1.0000    0.98560   0.30520   0.17210   Biso      1.000     O          -0.665652           
         O15       1.0000    0.49730   0.41660   0.71760   Biso      1.000     O          -0.588593           
         O16       1.0000    0.28420   0.69620   0.91840   Biso      1.000     O          -0.556268 