
##########################################################################
#               Crystallographic Information Format file
#               Produced by PyCifRW module
#
#  This is a CIF file.  CIF has been adopted by the International
#  Union of Crystallography as the standard for data archiving and
#  transmission.
#
#  For information on this file format, follow the CIF links at
#  http://www.iucr.org
##########################################################################

data_image0

_cell_length_a                          10.3749
_cell_length_b                          13.8983
_cell_length_c                          17.946
_cell_angle_alpha                       99.717
_cell_angle_beta                        90
_cell_angle_gamma                       90
_symmetry_space_group_name_H-M          'P 1'
_symmetry_int_tables_number             1
loop_
  _symmetry_equiv_pos_as_xyz
         'x, y, z' 
loop_
  _atom_site_label
  _atom_site_occupancy
  _atom_site_fract_x
  _atom_site_fract_y
  _atom_site_fract_z
  _atom_site_thermal_displace_type
  _atom_site_B_iso_or_equiv
  _atom_site_type_symbol
  _atom_site_charge
         C1        1.0000    0.81940   0.11430   0.03080   Biso      1.000     C          0.032083999999999994          
         C2        1.0000    0.18060   0.88570   0.96920   Biso      1.000     C          0.032091  
         C3        1.0000    0.16800   0.94960   0.91790   Biso      1.000     C          0.095361  
         C4        1.0000    0.46860   0.21360   0.29640   Biso      1.000     C          0.583486  
         C5        1.0000    0.71900   0.29850   0.52020   Biso      1.000     C          0.564716  
         C6        1.0000    0.49040   0.19230   0.37490   Biso      1.000     C          0.087077  
         C7        1.0000    0.42020   0.12960   0.40970   Biso      1.000     C          0.025861000000000002          
         C8        1.0000    0.39950   0.88820   0.95560   Biso      1.000     C          0.026219  
         C9        1.0000    0.53580   0.17350   0.51820   Biso      1.000     C          0.027763  
         C10       1.0000    0.49370   0.29150   0.77860   Biso      1.000     C          0.565984  
         C11       1.0000    0.67390   0.60990   0.81880   Biso      1.000     C          0.574074  
         C12       1.0000    0.49010   0.39120   0.82680   Biso      1.000     C          0.105402  
         C13       1.0000    0.40420   0.41960   0.88520   Biso      1.000     C          0.028861  
         C14       1.0000    0.48750   0.57360   0.90230   Biso      1.000     C          0.021471  
         C15       1.0000    0.57500   0.54570   0.84510   Biso      1.000     C          0.093943  
         C16       1.0000    0.61060   0.23470   0.48350   Biso      1.000     C          0.08849   
         C17       1.0000    0.99660   0.50960   0.63600   Biso      1.000     C          0.580299  
         C18       1.0000    0.38550   0.95070   0.90380   Biso      1.000     C          0.099737  
         C19       1.0000    0.49660   0.99040   0.86400   Biso      1.000     C          0.580304  
         C20       1.0000    0.31940   0.38570   0.46920   Biso      1.000     C          0.032088  
         C21       1.0000    0.33200   0.44960   0.41790   Biso      1.000     C          0.095362  
         C22       1.0000    0.96860   0.28640   0.20360   Biso      1.000     C          0.583487  
         C23       1.0000    0.21900   0.20150   0.97980   Biso      1.000     C          0.564718  
         C24       1.0000    0.99040   0.30770   0.12510   Biso      1.000     C          0.087076  
         C25       1.0000    0.92020   0.37040   0.09030   Biso      1.000     C          0.025861000000000002          
         C26       1.0000    0.04040   0.98570   0.89110   Biso      1.000     C          0.5592600000000001  
         C27       1.0000    0.03580   0.32650   0.98180   Biso      1.000     C          0.027763999999999997          
         C28       1.0000    0.99370   0.20850   0.72140   Biso      1.000     C          0.5659850000000001  
         C29       1.0000    0.17390   0.89010   0.68120   Biso      1.000     C          0.574068  
         C30       1.0000    0.99010   0.10880   0.67320   Biso      1.000     C          0.105406  
         C31       1.0000    0.90420   0.08040   0.61480   Biso      1.000     C          0.028860000000000004          
         C32       1.0000    0.98750   0.92640   0.59770   Biso      1.000     C          0.021472  
         C33       1.0000    0.07500   0.95430   0.65490   Biso      1.000     C          0.093945  
         C34       1.0000    0.11060   0.26530   0.01650   Biso      1.000     C          0.088491  
         C35       1.0000    0.54040   0.51430   0.60890   Biso      1.000     C          0.559266  
         C36       1.0000    0.88550   0.54930   0.59620   Biso      1.000     C          0.09974   
         C37       1.0000    0.89950   0.61180   0.54440   Biso      1.000     C          0.026220999999999998          
         C38       1.0000    0.95960   0.01430   0.10890   Biso      1.000     C          0.559267  
         C39       1.0000    0.50340   0.00960   0.13600   Biso      1.000     C          0.5803020000000001  
         C40       1.0000    0.92500   0.04570   0.34510   Biso      1.000     C          0.09394   
         C41       1.0000    0.01250   0.07360   0.40230   Biso      1.000     C          0.021475  
         C42       1.0000    0.09580   0.91960   0.38520   Biso      1.000     C          0.028856  
         C43       1.0000    0.00990   0.89120   0.32680   Biso      1.000     C          0.10540999999999999           
         C44       1.0000    0.61450   0.04930   0.09620   Biso      1.000     C          0.09974   
         C45       1.0000    0.82610   0.10990   0.31880   Biso      1.000     C          0.574072  
         C46       1.0000    0.88940   0.73470   0.98350   Biso      1.000     C          0.088489  
         C47       1.0000    0.96420   0.67350   0.01820   Biso      1.000     C          0.027766000000000002          
         C48       1.0000    0.07980   0.62960   0.90970   Biso      1.000     C          0.025851999999999997          
         C49       1.0000    0.00960   0.69230   0.87490   Biso      1.000     C          0.087085  
         C50       1.0000    0.78100   0.79850   0.02020   Biso      1.000     C          0.564716  
         C51       1.0000    0.03140   0.71360   0.79640   Biso      1.000     C          0.583487  
         C52       1.0000    0.00630   0.79150   0.27860   Biso      1.000     C          0.565976  
         C53       1.0000    0.60050   0.11180   0.04440   Biso      1.000     C          0.026215  
         C54       1.0000    0.83200   0.05040   0.08210   Biso      1.000     C          0.095362  
         C55       1.0000    0.53140   0.78640   0.70360   Biso      1.000     C          0.583487  
         C56       1.0000    0.68060   0.61430   0.53080   Biso      1.000     C          0.032094  
         C57       1.0000    0.66800   0.55040   0.58210   Biso      1.000     C          0.095361  
         C58       1.0000    0.45960   0.48570   0.39110   Biso      1.000     C          0.5592689999999999  
         C59       1.0000    0.00340   0.49040   0.36400   Biso      1.000     C          0.5803050000000001  
         C60       1.0000    0.42500   0.45430   0.15490   Biso      1.000     C          0.093942  
         C61       1.0000    0.51250   0.42640   0.09770   Biso      1.000     C          0.021475  
         C62       1.0000    0.59580   0.58040   0.11480   Biso      1.000     C          0.028858999999999996          
         C63       1.0000    0.50990   0.60880   0.17320   Biso      1.000     C          0.10540799999999999           
         C64       1.0000    0.32610   0.39010   0.18120   Biso      1.000     C          0.574071  
         C65       1.0000    0.50630   0.70850   0.22140   Biso      1.000     C          0.565983  
         C66       1.0000    0.38940   0.76530   0.51650   Biso      1.000     C          0.08849   
         C67       1.0000    0.46420   0.82650   0.48180   Biso      1.000     C          0.027763999999999997          
         C68       1.0000    0.57980   0.87040   0.59030   Biso      1.000     C          0.025852999999999998          
         C69       1.0000    0.50960   0.80770   0.62510   Biso      1.000     C          0.087082  
         C70       1.0000    0.28100   0.70150   0.47980   Biso      1.000     C          0.564717  
         C71       1.0000    0.10050   0.38820   0.45560   Biso      1.000     C          0.026218  
         C72       1.0000    0.11450   0.45070   0.40380   Biso      1.000     C          0.099739  
         Eu1       1.0000    0.75099   0.39801   0.70851   Biso      1.000     Eu          1.252561  
         Eu2       1.0000    0.72998   0.34817   0.34413   Biso      1.000     Eu          1.326227  
         Eu3       1.0000    0.25099   0.10199   0.79149   Biso      1.000     Eu          1.252578  
         Eu4       1.0000    0.22998   0.15183   0.15587   Biso      1.000     Eu          1.3262209999999999  
         Eu5       1.0000    0.24901   0.60199   0.29149   Biso      1.000     Eu          1.252544  
         Eu6       1.0000    0.27002   0.65183   0.65587   Biso      1.000     Eu          1.326231  
         Eu7       1.0000    0.74901   0.89801   0.20851   Biso      1.000     Eu          1.2525629999999999  
         Eu8       1.0000    0.77002   0.84817   0.84413   Biso      1.000     Eu          1.3262200000000002  
         H1        1.0000    0.94900   0.67000   0.06880   Biso      1.000     H          0.12779400000000002           
         H2        1.0000    0.14480   0.59320   0.88260   Biso      1.000     H          0.117281  
         H3        1.0000    0.60680   0.63600   0.50930   Biso      1.000     H          0.112652  
         H4        1.0000    0.98150   0.63110   0.53190   Biso      1.000     H          0.125993  
         H5        1.0000    0.48680   0.63810   0.92680   Biso      1.000     H          0.12265799999999999           
         H6        1.0000    0.55100   0.17000   0.56880   Biso      1.000     H          0.12779400000000002           
         H7        1.0000    0.35520   0.09320   0.38260   Biso      1.000     H          0.117279  
         H8        1.0000    0.10680   0.86400   0.99070   Biso      1.000     H          0.11265   
         H9        1.0000    0.48150   0.86890   0.96810   Biso      1.000     H          0.12599200000000002           
         H10       1.0000    0.34590   0.37430   0.89810   Biso      1.000     H          0.12287200000000001           
         H11       1.0000    0.51850   0.13110   0.03190   Biso      1.000     H          0.125993  
         H12       1.0000    0.01320   0.13810   0.42680   Biso      1.000     H          0.122656  
         H13       1.0000    0.98680   0.86190   0.57320   Biso      1.000     H          0.12265799999999999           
         H14       1.0000    0.89320   0.13600   0.00930   Biso      1.000     H          0.112651  
         H15       1.0000    0.64480   0.90680   0.61740   Biso      1.000     H          0.11728   
         H16       1.0000    0.44900   0.83000   0.43120   Biso      1.000     H          0.12779400000000002           
         H17       1.0000    0.15410   0.87430   0.39810   Biso      1.000     H          0.12287200000000001           
         H18       1.0000    0.65410   0.62570   0.10190   Biso      1.000     H          0.122875  
         H19       1.0000    0.01850   0.36890   0.46810   Biso      1.000     H          0.12599200000000002           
         H20       1.0000    0.39320   0.36400   0.49070   Biso      1.000     H          0.112651  
         H21       1.0000    0.85520   0.40680   0.11740   Biso      1.000     H          0.117279  
         H22       1.0000    0.05100   0.33000   0.93120   Biso      1.000     H          0.12779400000000002           
         H23       1.0000    0.84590   0.12570   0.60190   Biso      1.000     H          0.122875  
         H24       1.0000    0.51320   0.36190   0.07320   Biso      1.000     H          0.12265899999999999           
         N1        1.0000    0.42350   0.54610   0.19270   Biso      1.000     N          -0.253027           
         N2        1.0000    0.59680   0.48950   0.07650   Biso      1.000     N          -0.162385           
         N3        1.0000    0.41220   0.75680   0.58830   Biso      1.000     N          -0.24442399999999997          
         N4        1.0000    0.55860   0.88120   0.51860   Biso      1.000     N          -0.150895           
         N5        1.0000    0.05860   0.61880   0.98140   Biso      1.000     N          -0.15089  
         N6        1.0000    0.70520   0.14530   0.01170   Biso      1.000     N          -0.11969  
         N7        1.0000    0.09680   0.01050   0.42350   Biso      1.000     N          -0.162389           
         N8        1.0000    0.91220   0.74320   0.91170   Biso      1.000     N          -0.244425           
         N9        1.0000    0.20520   0.35470   0.48830   Biso      1.000     N          -0.11969300000000001          
         N10       1.0000    0.72960   0.01640   0.11370   Biso      1.000     N          -0.222061           
         N11       1.0000    0.22960   0.48360   0.38630   Biso      1.000     N          -0.222059           
         N12       1.0000    0.92350   0.95390   0.30730   Biso      1.000     N          -0.25303400000000004          
         N13       1.0000    0.08780   0.25680   0.08830   Biso      1.000     N          -0.244425           
         N14       1.0000    0.94140   0.38120   0.01860   Biso      1.000     N          -0.150895           
         N15       1.0000    0.79480   0.64530   0.51170   Biso      1.000     N          -0.119702           
         N16       1.0000    0.57650   0.45390   0.80730   Biso      1.000     N          -0.25303000000000003          
         N17       1.0000    0.40320   0.51050   0.92350   Biso      1.000     N          -0.162389           
         N18       1.0000    0.58780   0.24320   0.41170   Biso      1.000     N          -0.244425           
         N19       1.0000    0.77040   0.51640   0.61370   Biso      1.000     N          -0.22205999999999998          
         N20       1.0000    0.27040   0.98360   0.88630   Biso      1.000     N          -0.22205999999999998          
         N21       1.0000    0.29480   0.85470   0.98830   Biso      1.000     N          -0.119701           
         N22       1.0000    0.07650   0.04610   0.69270   Biso      1.000     N          -0.25303200000000003          
         N23       1.0000    0.90320   0.98950   0.57650   Biso      1.000     N          -0.162382           
         N24       1.0000    0.44140   0.11880   0.48140   Biso      1.000     N          -0.150895           
         O1        1.0000    0.25890   0.70230   0.41150   Biso      1.000     O          -0.522261           
         O2        1.0000    0.56090   0.44740   0.41190   Biso      1.000     O          -0.540864           
         O3        1.0000    0.03290   0.54530   0.31900   Biso      1.000     O          -0.467434           
         O4        1.0000    0.89270   0.46450   0.37850   Biso      1.000     O          -0.53881  
         O5        1.0000    0.24770   0.42900   0.22950   Biso      1.000     O          -0.54135  
         O6        1.0000    0.32960   0.30140   0.15190   Biso      1.000     O          -0.556502           
         O7        1.0000    0.41180   0.72440   0.26690   Biso      1.000     O          -0.496791           
         O8        1.0000    0.59620   0.76540   0.21180   Biso      1.000     O          -0.501801           
         O9        1.0000    0.22230   0.65250   0.52150   Biso      1.000     O          -0.523514           
         O10       1.0000    0.45220   0.72970   0.72700   Biso      1.000     O          -0.549937           
         O11       1.0000    0.39270   0.03550   0.12150   Biso      1.000     O          -0.538799           
         O12       1.0000    0.95350   0.95100   0.15050   Biso      1.000     O          -0.5250020000000001           
         O13       1.0000    0.06090   0.05260   0.08810   Biso      1.000     O          -0.540862           
         O14       1.0000    0.53290   0.95470   0.18100   Biso      1.000     O          -0.46743199999999996          
         O15       1.0000    0.45350   0.54900   0.34950   Biso      1.000     O          -0.525001           
         O16       1.0000    0.74770   0.07100   0.27050   Biso      1.000     O          -0.541351           
         O17       1.0000    0.82960   0.19860   0.34810   Biso      1.000     O          -0.5565100000000001           
         O18       1.0000    0.91180   0.77560   0.23310   Biso      1.000     O          -0.49678199999999995          
         O19       1.0000    0.09620   0.73460   0.28820   Biso      1.000     O          -0.50179  
         O20       1.0000    0.72230   0.84750   0.97850   Biso      1.000     O          -0.523515           
         O21       1.0000    0.75890   0.79770   0.08850   Biso      1.000     O          -0.522267           
         O22       1.0000    0.62750   0.82690   0.73870   Biso      1.000     O          -0.5514   
         O23       1.0000    0.87250   0.32690   0.23870   Biso      1.000     O          -0.5514020000000001           
         O24       1.0000    0.17040   0.80140   0.65190   Biso      1.000     O          -0.556503           
         O25       1.0000    0.24110   0.20230   0.91150   Biso      1.000     O          -0.522266           
         O26       1.0000    0.95220   0.77030   0.77300   Biso      1.000     O          -0.5499350000000001           
         O27       1.0000    0.54650   0.45100   0.65050   Biso      1.000     O          -0.524999           
         O28       1.0000    0.43910   0.55260   0.58810   Biso      1.000     O          -0.5408609999999999           
         O29       1.0000    0.96710   0.45470   0.68100   Biso      1.000     O          -0.467438           
         O30       1.0000    0.10730   0.53550   0.62150   Biso      1.000     O          -0.5387850000000001           
         O31       1.0000    0.75230   0.57100   0.77050   Biso      1.000     O          -0.541353           
         O32       1.0000    0.67040   0.69860   0.84810   Biso      1.000     O          -0.556504           
         O33       1.0000    0.58820   0.27560   0.73310   Biso      1.000     O          -0.49678199999999995          
         O34       1.0000    0.40380   0.23460   0.78820   Biso      1.000     O          -0.501804           
         O35       1.0000    0.77770   0.34750   0.47850   Biso      1.000     O          -0.523514           
         O36       1.0000    0.74110   0.29770   0.58850   Biso      1.000     O          -0.522263           
         O37       1.0000    0.54780   0.27030   0.27300   Biso      1.000     O          -0.549929           
         O38       1.0000    0.37250   0.17310   0.26130   Biso      1.000     O          -0.5514   
         O39       1.0000    0.04650   0.04900   0.84950   Biso      1.000     O          -0.524995           
         O40       1.0000    0.93910   0.94740   0.91190   Biso      1.000     O          -0.540845           
         O41       1.0000    0.46710   0.04530   0.81900   Biso      1.000     O          -0.46745200000000003          
         O42       1.0000    0.60730   0.96450   0.87850   Biso      1.000     O          -0.5387850000000001           
         O43       1.0000    0.25230   0.92900   0.72950   Biso      1.000     O          -0.541347           
         O44       1.0000    0.08820   0.22440   0.76690   Biso      1.000     O          -0.49678999999999995          
         O45       1.0000    0.90380   0.26540   0.71180   Biso      1.000     O          -0.5018060000000001           
         O46       1.0000    0.27770   0.15250   0.02150   Biso      1.000     O          -0.52352  
         O47       1.0000    0.04780   0.22970   0.22700   Biso      1.000     O          -0.549929           
         O48       1.0000    0.12750   0.67310   0.76130   Biso      1.000     O          -0.551407 