
##########################################################################
#               Crystallographic Information Format file
#               Produced by PyCifRW module
#
#  This is a CIF file.  CIF has been adopted by the International
#  Union of Crystallography as the standard for data archiving and
#  transmission.
#
#  For information on this file format, follow the CIF links at
#  http://www.iucr.org
##########################################################################

data_image0

_cell_length_a                          10.4831
_cell_length_b                          14.028
_cell_length_c                          18.144
_cell_angle_alpha                       100.028
_cell_angle_beta                        90
_cell_angle_gamma                       90
_symmetry_space_group_name_H-M          'P 1'
_symmetry_int_tables_number             1
loop_
  _symmetry_equiv_pos_as_xyz
         'x, y, z' 
loop_
  _atom_site_label
  _atom_site_occupancy
  _atom_site_fract_x
  _atom_site_fract_y
  _atom_site_fract_z
  _atom_site_thermal_displace_type
  _atom_site_B_iso_or_equiv
  _atom_site_type_symbol
  _atom_site_charge
         C1        1.0000    0.81880   0.11340   0.03160   Biso      1.000     C          0.037835  
         C2        1.0000    0.59430   0.57880   0.11540   Biso      1.000     C          0.046043  
         C3        1.0000    0.51260   0.42700   0.09780   Biso      1.000     C          0.030751999999999998          
         C4        1.0000    0.42610   0.45500   0.15590   Biso      1.000     C          0.083085  
         C5        1.0000    0.00500   0.49120   0.36490   Biso      1.000     C          0.640748  
         C6        1.0000    0.45870   0.48640   0.39220   Biso      1.000     C          0.605593  
         C7        1.0000    0.11410   0.45030   0.40500   Biso      1.000     C          0.08762   
         C8        1.0000    0.10360   0.38770   0.45540   Biso      1.000     C          0.040817  
         C9        1.0000    0.31880   0.38660   0.46840   Biso      1.000     C          0.037835  
         C10       1.0000    0.33190   0.44910   0.41850   Biso      1.000     C          0.089321  
         C11       1.0000    0.96980   0.28840   0.20300   Biso      1.000     C          0.641101  
         C12       1.0000    0.51020   0.60770   0.17410   Biso      1.000     C          0.105653  
         C13       1.0000    0.21670   0.20420   0.98080   Biso      1.000     C          0.611081  
         C14       1.0000    0.92130   0.37230   0.09140   Biso      1.000     C          0.043674  
         C15       1.0000    0.03610   0.32840   0.98420   Biso      1.000     C          0.044855  
         C16       1.0000    0.10910   0.26730   0.01800   Biso      1.000     C          0.09133   
         C17       1.0000    0.99340   0.20890   0.72030   Biso      1.000     C          0.625588  
         C18       1.0000    0.17240   0.89080   0.68120   Biso      1.000     C          0.622432  
         C19       1.0000    0.90570   0.07880   0.61540   Biso      1.000     C          0.046043  
         C20       1.0000    0.98740   0.92700   0.59780   Biso      1.000     C          0.030751999999999998          
         C21       1.0000    0.07390   0.95500   0.65590   Biso      1.000     C          0.083085  
         C22       1.0000    0.49500   0.99120   0.86490   Biso      1.000     C          0.640748  
         C23       1.0000    0.04130   0.98640   0.89220   Biso      1.000     C          0.605594  
         C24       1.0000    0.99150   0.30940   0.12650   Biso      1.000     C          0.077544  
         C25       1.0000    0.38590   0.95030   0.90500   Biso      1.000     C          0.08762   
         C26       1.0000    0.32760   0.39080   0.18120   Biso      1.000     C          0.622432  
         C27       1.0000    0.39090   0.76730   0.51800   Biso      1.000     C          0.091329  
         C28       1.0000    0.03020   0.71160   0.79700   Biso      1.000     C          0.641101  
         C29       1.0000    0.78330   0.79580   0.01920   Biso      1.000     C          0.611081  
         C30       1.0000    0.00850   0.69060   0.87350   Biso      1.000     C          0.077541  
         C31       1.0000    0.07870   0.62770   0.90860   Biso      1.000     C          0.043677  
         C32       1.0000    0.96390   0.67160   0.01580   Biso      1.000     C          0.044855  
         C33       1.0000    0.89090   0.73270   0.98200   Biso      1.000     C          0.09133   
         C34       1.0000    0.00660   0.79110   0.27970   Biso      1.000     C          0.625588  
         C35       1.0000    0.82760   0.10920   0.31880   Biso      1.000     C          0.622432  
         C36       1.0000    0.01020   0.89230   0.32590   Biso      1.000     C          0.105652  
         C37       1.0000    0.09430   0.92120   0.38460   Biso      1.000     C          0.046044  
         C38       1.0000    0.50660   0.70890   0.22030   Biso      1.000     C          0.625588  
         C39       1.0000    0.01260   0.07300   0.40220   Biso      1.000     C          0.030751999999999998          
         C40       1.0000    0.50500   0.00880   0.13510   Biso      1.000     C          0.640748  
         C41       1.0000    0.95870   0.01360   0.10780   Biso      1.000     C          0.605593  
         C42       1.0000    0.61410   0.04970   0.09500   Biso      1.000     C          0.08762   
         C43       1.0000    0.60360   0.11230   0.04460   Biso      1.000     C          0.040817  
         C44       1.0000    0.83190   0.05090   0.08150   Biso      1.000     C          0.089321  
         C45       1.0000    0.53020   0.78840   0.70300   Biso      1.000     C          0.641101  
         C46       1.0000    0.28330   0.70420   0.48080   Biso      1.000     C          0.611081  
         C47       1.0000    0.50850   0.80940   0.62650   Biso      1.000     C          0.077541  
         C48       1.0000    0.57870   0.87230   0.59140   Biso      1.000     C          0.043677  
         C49       1.0000    0.46390   0.82840   0.48420   Biso      1.000     C          0.044857  
         C50       1.0000    0.92610   0.04500   0.34410   Biso      1.000     C          0.083085  
         C51       1.0000    0.39640   0.88770   0.95540   Biso      1.000     C          0.040817  
         C52       1.0000    0.98980   0.10770   0.67410   Biso      1.000     C          0.105653  
         C53       1.0000    0.16810   0.94910   0.91850   Biso      1.000     C          0.089313  
         C54       1.0000    0.66810   0.55090   0.58150   Biso      1.000     C          0.089313  
         C55       1.0000    0.68120   0.61340   0.53160   Biso      1.000     C          0.037844  
         C56       1.0000    0.89640   0.61230   0.54460   Biso      1.000     C          0.04081   
         C57       1.0000    0.88590   0.54970   0.59500   Biso      1.000     C          0.087626  
         C58       1.0000    0.18120   0.88660   0.96840   Biso      1.000     C          0.037844  
         C59       1.0000    0.99500   0.50880   0.63510   Biso      1.000     C          0.640748  
         C60       1.0000    0.57390   0.54500   0.84410   Biso      1.000     C          0.083085  
         C61       1.0000    0.48740   0.57300   0.90220   Biso      1.000     C          0.030751  
         C62       1.0000    0.40570   0.42120   0.88460   Biso      1.000     C          0.046043  
         C63       1.0000    0.54130   0.51360   0.60780   Biso      1.000     C          0.605594  
         C64       1.0000    0.67240   0.60920   0.81880   Biso      1.000     C          0.622432  
         C65       1.0000    0.49340   0.29110   0.77970   Biso      1.000     C          0.625588  
         C66       1.0000    0.60910   0.23270   0.48200   Biso      1.000     C          0.091329  
         C67       1.0000    0.53610   0.17160   0.51580   Biso      1.000     C          0.044857  
         C68       1.0000    0.42130   0.12770   0.40860   Biso      1.000     C          0.043674  
         C69       1.0000    0.49150   0.19060   0.37350   Biso      1.000     C          0.077543  
         C70       1.0000    0.71670   0.29580   0.51920   Biso      1.000     C          0.611081  
         C71       1.0000    0.46980   0.21160   0.29700   Biso      1.000     C          0.641101  
         C72       1.0000    0.48980   0.39230   0.82590   Biso      1.000     C          0.105653  
         H1        1.0000    0.84830   0.12380   0.60260   Biso      1.000     H          0.116532  
         H2        1.0000    0.98740   0.86320   0.57290   Biso      1.000     H          0.12040899999999999           
         H3        1.0000    0.47710   0.86760   0.96740   Biso      1.000     H          0.112943  
         H4        1.0000    0.10800   0.86550   0.98970   Biso      1.000     H          0.10770899999999999           
         H5        1.0000    0.97710   0.63240   0.53260   Biso      1.000     H          0.112943  
         H6        1.0000    0.55180   0.16760   0.56570   Biso      1.000     H          0.122494  
         H7        1.0000    0.34830   0.37620   0.89740   Biso      1.000     H          0.116532  
         H8        1.0000    0.48740   0.63680   0.92710   Biso      1.000     H          0.12040899999999999           
         H9        1.0000    0.60800   0.63450   0.51030   Biso      1.000     H          0.10770899999999999           
         H10       1.0000    0.35690   0.09130   0.38190   Biso      1.000     H          0.10957599999999999           
         H11       1.0000    0.85690   0.40870   0.11810   Biso      1.000     H          0.10957599999999999           
         H12       1.0000    0.05180   0.33240   0.93430   Biso      1.000     H          0.122495  
         H13       1.0000    0.02290   0.36760   0.46740   Biso      1.000     H          0.112943  
         H14       1.0000    0.39200   0.36550   0.48970   Biso      1.000     H          0.10770899999999999           
         H15       1.0000    0.94820   0.66760   0.06570   Biso      1.000     H          0.122495  
         H16       1.0000    0.15170   0.87620   0.39740   Biso      1.000     H          0.116532  
         H17       1.0000    0.01260   0.13680   0.42710   Biso      1.000     H          0.12040899999999999           
         H18       1.0000    0.52290   0.13240   0.03260   Biso      1.000     H          0.112943  
         H19       1.0000    0.14310   0.59130   0.88190   Biso      1.000     H          0.109575  
         H20       1.0000    0.64310   0.90870   0.61810   Biso      1.000     H          0.109575  
         H21       1.0000    0.44820   0.83240   0.43430   Biso      1.000     H          0.122494  
         H22       1.0000    0.65170   0.62380   0.10260   Biso      1.000     H          0.116532  
         H23       1.0000    0.51260   0.36320   0.07290   Biso      1.000     H          0.12040899999999999           
         H24       1.0000    0.89200   0.13450   0.01030   Biso      1.000     H          0.10770899999999999           
         N1        1.0000    0.20590   0.35460   0.48780   Biso      1.000     N          -0.193548           
         N2        1.0000    0.58660   0.24160   0.41160   Biso      1.000     N          -0.346968           
         N3        1.0000    0.22890   0.48330   0.38690   Biso      1.000     N          -0.327189           
         N4        1.0000    0.94250   0.38280   0.02090   Biso      1.000     N          -0.200753           
         N5        1.0000    0.08660   0.25840   0.08840   Biso      1.000     N          -0.346968           
         N6        1.0000    0.90460   0.98970   0.57710   Biso      1.000     N          -0.20263299999999998          
         N7        1.0000    0.07410   0.04620   0.69230   Biso      1.000     N          -0.354006           
         N8        1.0000    0.29410   0.85460   0.98780   Biso      1.000     N          -0.193549           
         N9        1.0000    0.27110   0.98330   0.88690   Biso      1.000     N          -0.327189           
         N10       1.0000    0.44250   0.11720   0.47910   Biso      1.000     N          -0.200753           
         N11       1.0000    0.40460   0.51030   0.92290   Biso      1.000     N          -0.20263299999999998          
         N12       1.0000    0.09540   0.01030   0.42290   Biso      1.000     N          -0.20263299999999998          
         N13       1.0000    0.79410   0.64540   0.51220   Biso      1.000     N          -0.193548           
         N14       1.0000    0.77110   0.51670   0.61310   Biso      1.000     N          -0.327189           
         N15       1.0000    0.05750   0.61720   0.97910   Biso      1.000     N          -0.200754           
         N16       1.0000    0.91340   0.74160   0.91160   Biso      1.000     N          -0.346968           
         N17       1.0000    0.92590   0.95380   0.30770   Biso      1.000     N          -0.354006           
         N18       1.0000    0.70590   0.14540   0.01220   Biso      1.000     N          -0.193548           
         N19       1.0000    0.72890   0.01670   0.11310   Biso      1.000     N          -0.327189           
         N20       1.0000    0.55750   0.88280   0.52090   Biso      1.000     N          -0.200754           
         N21       1.0000    0.42590   0.54620   0.19230   Biso      1.000     N          -0.354006           
         N22       1.0000    0.41340   0.75840   0.58840   Biso      1.000     N          -0.346968           
         N23       1.0000    0.57410   0.45380   0.80770   Biso      1.000     N          -0.354006           
         N24       1.0000    0.59540   0.48970   0.07710   Biso      1.000     N          -0.20263299999999998          
         Nd1       1.0000    0.75139   0.39649   0.70769   Biso      1.000     Nd          2.004223  
         Nd2       1.0000    0.76973   0.84843   0.84431   Biso      1.000     Nd          2.076364  
         Nd3       1.0000    0.74861   0.89649   0.20769   Biso      1.000     Nd          2.004223  
         Nd4       1.0000    0.26973   0.65157   0.65569   Biso      1.000     Nd          2.076364  
         Nd5       1.0000    0.24861   0.60351   0.29231   Biso      1.000     Nd          2.004223  
         Nd6       1.0000    0.23027   0.15157   0.15569   Biso      1.000     Nd          2.076364  
         Nd7       1.0000    0.25139   0.10351   0.79231   Biso      1.000     Nd          2.004223  
         Nd8       1.0000    0.73027   0.34843   0.34431   Biso      1.000     Nd          2.076364  
         O1        1.0000    0.22520   0.65440   0.52070   Biso      1.000     O          -0.59931  
         O2        1.0000    0.59470   0.76440   0.21070   Biso      1.000     O          -0.633196           
         O3        1.0000    0.41470   0.72580   0.26630   Biso      1.000     O          -0.639821           
         O4        1.0000    0.33110   0.30270   0.15200   Biso      1.000     O          -0.6466529999999999           
         O5        1.0000    0.03260   0.54470   0.32070   Biso      1.000     O          -0.604842           
         O6        1.0000    0.89550   0.46420   0.38110   Biso      1.000     O          -0.686944           
         O7        1.0000    0.26170   0.70740   0.41320   Biso      1.000     O          -0.635737           
         O8        1.0000    0.55810   0.44790   0.41260   Biso      1.000     O          -0.6733399999999999           
         O9        1.0000    0.24900   0.42930   0.22830   Biso      1.000     O          -0.629438           
         O10       1.0000    0.45290   0.73160   0.72650   Biso      1.000     O          -0.644662           
         O11       1.0000    0.53260   0.95530   0.17930   Biso      1.000     O          -0.604842           
         O12       1.0000    0.95270   0.95140   0.14830   Biso      1.000     O          -0.612246           
         O13       1.0000    0.05810   0.05210   0.08740   Biso      1.000     O          -0.6733399999999999           
         O14       1.0000    0.45270   0.54860   0.35170   Biso      1.000     O          -0.612246           
         O15       1.0000    0.39550   0.03580   0.11890   Biso      1.000     O          -0.686944           
         O16       1.0000    0.74900   0.07070   0.27170   Biso      1.000     O          -0.629438           
         O17       1.0000    0.83110   0.19730   0.34800   Biso      1.000     O          -0.6466529999999999           
         O18       1.0000    0.91470   0.77420   0.23370   Biso      1.000     O          -0.639821           
         O19       1.0000    0.09470   0.73560   0.28930   Biso      1.000     O          -0.633196           
         O20       1.0000    0.72520   0.84560   0.97930   Biso      1.000     O          -0.59931  
         O21       1.0000    0.76170   0.79260   0.08680   Biso      1.000     O          -0.635737           
         O22       1.0000    0.62630   0.82890   0.73800   Biso      1.000     O          -0.664036           
         O23       1.0000    0.87370   0.32890   0.23800   Biso      1.000     O          -0.664036           
         O24       1.0000    0.27480   0.15440   0.02070   Biso      1.000     O          -0.59931  
         O25       1.0000    0.23830   0.20740   0.91320   Biso      1.000     O          -0.635737           
         O26       1.0000    0.54730   0.45140   0.64830   Biso      1.000     O          -0.612246           
         O27       1.0000    0.44190   0.55210   0.58740   Biso      1.000     O          -0.6733399999999999           
         O28       1.0000    0.96740   0.45530   0.67930   Biso      1.000     O          -0.604842           
         O29       1.0000    0.10450   0.53580   0.61890   Biso      1.000     O          -0.686944           
         O30       1.0000    0.75100   0.57070   0.77170   Biso      1.000     O          -0.629438           
         O31       1.0000    0.66890   0.69730   0.84800   Biso      1.000     O          -0.6466529999999999           
         O32       1.0000    0.58530   0.27420   0.73370   Biso      1.000     O          -0.639821           
         O33       1.0000    0.40530   0.23560   0.78930   Biso      1.000     O          -0.633196           
         O34       1.0000    0.77480   0.34560   0.47930   Biso      1.000     O          -0.59931  
         O35       1.0000    0.73830   0.29260   0.58680   Biso      1.000     O          -0.635737           
         O36       1.0000    0.54710   0.26840   0.27350   Biso      1.000     O          -0.644662           
         O37       1.0000    0.37370   0.17110   0.26200   Biso      1.000     O          -0.664036           
         O38       1.0000    0.04730   0.04860   0.85170   Biso      1.000     O          -0.612246           
         O39       1.0000    0.94190   0.94790   0.91260   Biso      1.000     O          -0.6733399999999999           
         O40       1.0000    0.46740   0.04470   0.82070   Biso      1.000     O          -0.604842           
         O41       1.0000    0.60450   0.96420   0.88110   Biso      1.000     O          -0.686944           
         O42       1.0000    0.25100   0.92930   0.72830   Biso      1.000     O          -0.629438           
         O43       1.0000    0.16890   0.80270   0.65200   Biso      1.000     O          -0.6466529999999999           
         O44       1.0000    0.08530   0.22580   0.76630   Biso      1.000     O          -0.639821           
         O45       1.0000    0.90530   0.26440   0.71070   Biso      1.000     O          -0.633196           
         O46       1.0000    0.95290   0.76840   0.77350   Biso      1.000     O          -0.644662           
         O47       1.0000    0.04710   0.23160   0.22650   Biso      1.000     O          -0.644662           
         O48       1.0000    0.12630   0.67110   0.76200   Biso      1.000     O          -0.664036 