
##########################################################################
#               Crystallographic Information Format file
#               Produced by PyCifRW module
#
#  This is a CIF file.  CIF has been adopted by the International
#  Union of Crystallography as the standard for data archiving and
#  transmission.
#
#  For information on this file format, follow the CIF links at
#  http://www.iucr.org
##########################################################################

data_image0

_cell_length_a                          7.8538
_cell_length_b                          11.0219
_cell_length_c                          11.6693
_cell_angle_alpha                       108.674
_cell_angle_beta                        105.812
_cell_angle_gamma                       104.108
_symmetry_space_group_name_H-M          'P 1'
_symmetry_int_tables_number             1
loop_
  _symmetry_equiv_pos_as_xyz
         'x, y, z' 
loop_
  _atom_site_label
  _atom_site_occupancy
  _atom_site_fract_x
  _atom_site_fract_y
  _atom_site_fract_z
  _atom_site_thermal_displace_type
  _atom_site_B_iso_or_equiv
  _atom_site_type_symbol
  _atom_site_charge
         C1        1.0000    0.83180   0.66340   0.03830   Biso      1.000     C          -0.345624           
         C2        1.0000    0.01800   0.08110   0.26560   Biso      1.000     C          0.740053  
         C3        1.0000    0.89960   0.59380   0.12650   Biso      1.000     C          -0.156006           
         C4        1.0000    0.02990   0.11490   0.40380   Biso      1.000     C          -0.344883           
         C5        1.0000    0.79300   0.38250   0.17670   Biso      1.000     C          -0.32871999999999996          
         C6        1.0000    0.98560   0.78140   0.04410   Biso      1.000     C          0.703182  
         C7        1.0000    0.99630   0.98660   0.43200   Biso      1.000     C          -0.146562           
         C8        1.0000    0.74470   0.45730   0.09050   Biso      1.000     C          -0.152671           
         C9        1.0000    0.98200   0.91890   0.73440   Biso      1.000     C          0.740053  
         C10       1.0000    0.61900   0.25900   0.13750   Biso      1.000     C          0.7005100000000001  
         C11       1.0000    0.10040   0.40620   0.87350   Biso      1.000     C          -0.156005           
         C12       1.0000    0.97010   0.88510   0.59620   Biso      1.000     C          -0.344883           
         C13       1.0000    0.20700   0.61750   0.82330   Biso      1.000     C          -0.328721           
         C14       1.0000    0.01440   0.21860   0.95590   Biso      1.000     C          0.703183  
         C15       1.0000    0.00370   0.01340   0.56800   Biso      1.000     C          -0.146562           
         C16       1.0000    0.25530   0.54270   0.90950   Biso      1.000     C          -0.152672           
         C17       1.0000    0.38100   0.74100   0.86250   Biso      1.000     C          0.7005100000000001  
         C18       1.0000    0.16820   0.33660   0.96170   Biso      1.000     C          -0.345625           
         H1        1.0000    0.28390   0.60310   0.99920   Biso      1.000     H          0.099777  
         H2        1.0000    0.36950   0.52540   0.90620   Biso      1.000     H          0.09454800000000001           
         H3        1.0000    0.12700   0.08130   0.63020   Biso      1.000     H          0.097001  
         H4        1.0000    0.90840   0.05200   0.58140   Biso      1.000     H          0.098885  
         H5        1.0000    0.10330   0.64680   0.83390   Biso      1.000     H          0.136324  
         H6        1.0000    0.76920   0.59480   0.94860   Biso      1.000     H          0.148411  
         H7        1.0000    0.73780   0.69730   0.06210   Biso      1.000     H          0.141506  
         H8        1.0000    0.01210   0.57720   0.11760   Biso      1.000     H          0.102881  
         H9        1.0000    0.93340   0.65410   0.21710   Biso      1.000     H          0.098409  
         H10       1.0000    0.15430   0.18270   0.46420   Biso      1.000     H          0.136239  
         H11       1.0000    0.93570   0.15450   0.41750   Biso      1.000     H          0.132607  
         H12       1.0000    0.89670   0.35320   0.16610   Biso      1.000     H          0.136324  
         H13       1.0000    0.83220   0.44350   0.26790   Biso      1.000     H          0.14009000000000002           
         H14       1.0000    0.16780   0.55650   0.73210   Biso      1.000     H          0.14009000000000002           
         H15       1.0000    0.09160   0.94800   0.41860   Biso      1.000     H          0.098885  
         H16       1.0000    0.87300   0.91870   0.36980   Biso      1.000     H          0.097001  
         H17       1.0000    0.63050   0.47460   0.09380   Biso      1.000     H          0.09454800000000001           
         H18       1.0000    0.23080   0.40520   0.05140   Biso      1.000     H          0.14841   
         H19       1.0000    0.26220   0.30270   0.93790   Biso      1.000     H          0.141506  
         H20       1.0000    0.98790   0.42280   0.88240   Biso      1.000     H          0.102881  
         H21       1.0000    0.06660   0.34590   0.78290   Biso      1.000     H          0.098409  
         H22       1.0000    0.84570   0.81730   0.53580   Biso      1.000     H          0.136239  
         H23       1.0000    0.06430   0.84550   0.58250   Biso      1.000     H          0.132607  
         H24       1.0000    0.71610   0.39690   0.00080   Biso      1.000     H          0.099777  
         O1        1.0000    0.41010   0.85600   0.95220   Biso      1.000     O          -0.7856920000000001           
         O2        1.0000    0.15610   0.80850   0.10440   Biso      1.000     O          -0.616891           
         O3        1.0000    0.83460   0.91050   0.75690   Biso      1.000     O          -0.691045           
         O4        1.0000    0.14680   0.96010   0.82350   Biso      1.000     O          -0.7120609999999999           
         O5        1.0000    0.06820   0.14930   0.01830   Biso      1.000     O          -0.777856           
         O6        1.0000    0.50010   0.27160   0.18880   Biso      1.000     O          -0.631003           
         O7        1.0000    0.84390   0.19150   0.89560   Biso      1.000     O          -0.616891           
         O8        1.0000    0.58990   0.14400   0.04780   Biso      1.000     O          -0.7856920000000001           
         O9        1.0000    0.85320   0.03990   0.17650   Biso      1.000     O          -0.7120609999999999           
         O10       1.0000    0.93180   0.85070   0.98170   Biso      1.000     O          -0.777856           
         O11       1.0000    0.49990   0.72840   0.81120   Biso      1.000     O          -0.631003           
         O12       1.0000    0.16540   0.08950   0.24310   Biso      1.000     O          -0.691045           
         Pr1       1.0000    0.27462   0.02108   0.06542   Biso      1.000     Pr          2.118592  
         Pr2       1.0000    0.72538   0.97892   0.93458   Biso      1.000     Pr          2.118592 