
##########################################################################
#               Crystallographic Information Format file
#               Produced by PyCifRW module
#
#  This is a CIF file.  CIF has been adopted by the International
#  Union of Crystallography as the standard for data archiving and
#  transmission.
#
#  For information on this file format, follow the CIF links at
#  http://www.iucr.org
##########################################################################

data_image0

_cell_length_a                          11.7
_cell_length_b                          11.831
_cell_length_c                          13.49
_cell_angle_alpha                       90
_cell_angle_beta                        90
_cell_angle_gamma                       90
_symmetry_space_group_name_H-M          'P 1'
_symmetry_int_tables_number             1
loop_
  _symmetry_equiv_pos_as_xyz
         'x, y, z' 
loop_
  _atom_site_label
  _atom_site_occupancy
  _atom_site_fract_x
  _atom_site_fract_y
  _atom_site_fract_z
  _atom_site_thermal_displace_type
  _atom_site_B_iso_or_equiv
  _atom_site_type_symbol
  _atom_site_charge
         C1        1.0000    0.15440   0.50000   0.50000   Biso      1.000     C          0.116182  
         C2        1.0000    0.28820   0.56380   0.00140   Biso      1.000     C          0.11626600000000001           
         C3        1.0000    0.37480   0.62410   0.04330   Biso      1.000     C          -0.18246800000000002          
         C4        1.0000    0.36940   0.74290   0.04110   Biso      1.000     C          0.10725699999999999           
         C5        1.0000    0.53910   0.94700   0.92720   Biso      1.000     C          0.09726900000000001           
         C6        1.0000    0.65910   0.05250   0.07420   Biso      1.000     C          -0.178453           
         C7        1.0000    0.90720   0.95360   0.07840   Biso      1.000     C          -0.183093           
         C8        1.0000    0.02670   0.95670   0.07620   Biso      1.000     C          0.09744   
         C9        1.0000    0.23930   0.95070   0.35930   Biso      1.000     C          -0.123152           
         C10       1.0000    0.31490   0.89350   0.42250   Biso      1.000     C          -0.167233           
         C11       1.0000    0.24660   0.82750   0.48720   Biso      1.000     C          -0.11564200000000001          
         C12       1.0000    0.13010   0.85350   0.47120   Biso      1.000     C          -0.15241300000000002          
         C13       1.0000    0.12560   0.92690   0.38690   Biso      1.000     C          -0.17065  
         C14       1.0000    0.20160   0.62310   0.95550   Biso      1.000     C          -0.189693           
         C15       1.0000    0.20330   0.26330   0.04630   Biso      1.000     C          0.09519   
         C16       1.0000    0.28820   0.43620   0.99860   Biso      1.000     C          0.11626500000000001           
         C17       1.0000    0.37480   0.37590   0.95670   Biso      1.000     C          -0.18246800000000002          
         C18       1.0000    0.36940   0.25710   0.95890   Biso      1.000     C          0.10725699999999999           
         C19       1.0000    0.53910   0.05300   0.07280   Biso      1.000     C          0.09726900000000001           
         C20       1.0000    0.65910   0.94750   0.92580   Biso      1.000     C          -0.178453           
         C21       1.0000    0.90720   0.04640   0.92160   Biso      1.000     C          -0.183093           
         C22       1.0000    0.02670   0.04330   0.92380   Biso      1.000     C          0.09744   
         C23       1.0000    0.71780   0.00000   0.00000   Biso      1.000     C          0.112996  
         C24       1.0000    0.84560   0.00000   0.00000   Biso      1.000     C          0.116176  
         C25       1.0000    0.75340   0.32750   0.01280   Biso      1.000     C          -0.11564  
         C26       1.0000    0.68510   0.39350   0.07750   Biso      1.000     C          -0.167234           
         C27       1.0000    0.76070   0.45070   0.14070   Biso      1.000     C          -0.123153           
         C28       1.0000    0.20160   0.37690   0.04450   Biso      1.000     C          -0.189689           
         C29       1.0000    0.20330   0.73670   0.95370   Biso      1.000     C          0.095194  
         C30       1.0000    0.12560   0.07310   0.61310   Biso      1.000     C          -0.170647           
         C31       1.0000    0.76070   0.54930   0.85930   Biso      1.000     C          -0.123152           
         C32       1.0000    0.97330   0.45670   0.42380   Biso      1.000     C          0.097443  
         C33       1.0000    0.09280   0.45360   0.42160   Biso      1.000     C          -0.183096           
         C34       1.0000    0.34090   0.55250   0.42580   Biso      1.000     C          -0.178452           
         C35       1.0000    0.46090   0.44700   0.57280   Biso      1.000     C          0.09726900000000001           
         C36       1.0000    0.63060   0.24290   0.45890   Biso      1.000     C          0.10725799999999999           
         C37       1.0000    0.62520   0.12410   0.45670   Biso      1.000     C          -0.182475           
         C38       1.0000    0.71180   0.06380   0.49860   Biso      1.000     C          0.116274  
         C39       1.0000    0.79840   0.12310   0.54450   Biso      1.000     C          -0.189692           
         C40       1.0000    0.79670   0.23670   0.54630   Biso      1.000     C          0.095195  
         C41       1.0000    0.87440   0.57310   0.88690   Biso      1.000     C          -0.170649           
         C42       1.0000    0.86990   0.64650   0.97120   Biso      1.000     C          -0.15241300000000002          
         C43       1.0000    0.75340   0.67250   0.98720   Biso      1.000     C          -0.11564200000000001          
         C44       1.0000    0.68510   0.60650   0.92250   Biso      1.000     C          -0.167235           
         C45       1.0000    0.13010   0.14650   0.52880   Biso      1.000     C          -0.15241300000000002          
         C46       1.0000    0.28220   0.50000   0.50000   Biso      1.000     C          0.112988  
         C47       1.0000    0.09280   0.54640   0.57840   Biso      1.000     C          -0.183095           
         C48       1.0000    0.34090   0.44750   0.57420   Biso      1.000     C          -0.17844400000000002          
         C49       1.0000    0.46090   0.55300   0.42720   Biso      1.000     C          0.09727000000000001           
         C50       1.0000    0.63060   0.75710   0.54110   Biso      1.000     C          0.10725799999999999           
         C51       1.0000    0.62520   0.87590   0.54330   Biso      1.000     C          -0.182475           
         C52       1.0000    0.71180   0.93620   0.50140   Biso      1.000     C          0.116273  
         C53       1.0000    0.79840   0.87690   0.45550   Biso      1.000     C          -0.189692           
         C54       1.0000    0.79670   0.76330   0.45370   Biso      1.000     C          0.095195  
         C55       1.0000    0.87440   0.42690   0.11310   Biso      1.000     C          -0.170649           
         C56       1.0000    0.86990   0.35350   0.02880   Biso      1.000     C          -0.15241400000000002          
         C57       1.0000    0.23930   0.04930   0.64070   Biso      1.000     C          -0.123154           
         C58       1.0000    0.31490   0.10650   0.57750   Biso      1.000     C          -0.167233           
         C59       1.0000    0.24660   0.17250   0.51280   Biso      1.000     C          -0.115645           
         C60       1.0000    0.97330   0.54330   0.57620   Biso      1.000     C          0.097441  
         Cd1       1.0000    0.71745   0.50000   0.50000   Biso      1.000     Cd          0.787004  
         Cd2       1.0000    0.28255   0.00000   0.00000   Biso      1.000     Cd          0.7870050000000001  
         Fe1       1.0000    0.21276   0.00000   0.50000   Biso      1.000     Fe          0.247336  
         Fe2       1.0000    0.78724   0.50000   0.00000   Biso      1.000     Fe          0.24733400000000003           
         H1        1.0000    0.13080   0.42080   0.36830   Biso      1.000     H          0.139531  
         H2        1.0000    0.50080   0.40960   0.62260   Biso      1.000     H          0.106999  
         H3        1.0000    0.30160   0.41210   0.62550   Biso      1.000     H          0.137595  
         H4        1.0000    0.14170   0.58430   0.92560   Biso      1.000     H          0.12991   
         H5        1.0000    0.93250   0.42770   0.37030   Biso      1.000     H          0.102267  
         H6        1.0000    0.43640   0.58740   0.07280   Biso      1.000     H          0.142327  
         H7        1.0000    0.42720   0.78370   0.07210   Biso      1.000     H          0.098236  
         H8        1.0000    0.49920   0.90960   0.87740   Biso      1.000     H          0.106998  
         H9        1.0000    0.06750   0.07230   0.87030   Biso      1.000     H          0.102267  
         H10       1.0000    0.86920   0.07920   0.86830   Biso      1.000     H          0.13953   
         H11       1.0000    0.69840   0.08790   0.12550   Biso      1.000     H          0.137594  
         H12       1.0000    0.49920   0.09040   0.12260   Biso      1.000     H          0.106998  
         H13       1.0000    0.42720   0.21630   0.92790   Biso      1.000     H          0.098236  
         H14       1.0000    0.43640   0.41260   0.92720   Biso      1.000     H          0.142327  
         H15       1.0000    0.14170   0.41570   0.07440   Biso      1.000     H          0.12991   
         H16       1.0000    0.14450   0.22580   0.07900   Biso      1.000     H          0.095776  
         H17       1.0000    0.05640   0.95630   0.35510   Biso      1.000     H          0.135382  
         H18       1.0000    0.06470   0.82280   0.50770   Biso      1.000     H          0.130117  
         H19       1.0000    0.27590   0.77920   0.54050   Biso      1.000     H          0.129484  
         H20       1.0000    0.39850   0.89510   0.41970   Biso      1.000     H          0.140442  
         H21       1.0000    0.06750   0.92770   0.12970   Biso      1.000     H          0.102267  
         H22       1.0000    0.57280   0.28370   0.42790   Biso      1.000     H          0.098237  
         H23       1.0000    0.56360   0.08740   0.42720   Biso      1.000     H          0.142328  
         H24       1.0000    0.85550   0.27420   0.57900   Biso      1.000     H          0.095776  
         H25       1.0000    0.86920   0.92080   0.13170   Biso      1.000     H          0.139531  
         H26       1.0000    0.39850   0.10490   0.58030   Biso      1.000     H          0.140442  
         H27       1.0000    0.27590   0.22080   0.45950   Biso      1.000     H          0.129484  
         H28       1.0000    0.06470   0.17720   0.49230   Biso      1.000     H          0.130116  
         H29       1.0000    0.05640   0.04370   0.64490   Biso      1.000     H          0.135381  
         H30       1.0000    0.14450   0.77420   0.92100   Biso      1.000     H          0.095775  
         H31       1.0000    0.60150   0.39510   0.08030   Biso      1.000     H          0.140443  
         H32       1.0000    0.72410   0.27920   0.95950   Biso      1.000     H          0.129484  
         H33       1.0000    0.93530   0.32280   0.99230   Biso      1.000     H          0.130117  
         H34       1.0000    0.94360   0.45630   0.14490   Biso      1.000     H          0.135382  
         H35       1.0000    0.85550   0.72580   0.42100   Biso      1.000     H          0.095776  
         H36       1.0000    0.85830   0.91570   0.42560   Biso      1.000     H          0.129911  
         H37       1.0000    0.56360   0.91260   0.57280   Biso      1.000     H          0.142328  
         H38       1.0000    0.57280   0.71630   0.57210   Biso      1.000     H          0.098237  
         H39       1.0000    0.50080   0.59040   0.37740   Biso      1.000     H          0.106999  
         H40       1.0000    0.30160   0.58790   0.37450   Biso      1.000     H          0.137596  
         H41       1.0000    0.13080   0.57920   0.63170   Biso      1.000     H          0.139532  
         H42       1.0000    0.93250   0.57230   0.62970   Biso      1.000     H          0.102267  
         H43       1.0000    0.60150   0.60490   0.91970   Biso      1.000     H          0.140443  
         H44       1.0000    0.72410   0.72080   0.04050   Biso      1.000     H          0.129484  
         H45       1.0000    0.93530   0.67720   0.00770   Biso      1.000     H          0.130117  
         H46       1.0000    0.94360   0.54370   0.85510   Biso      1.000     H          0.135382  
         H47       1.0000    0.85830   0.08430   0.57440   Biso      1.000     H          0.129911  
         H48       1.0000    0.69840   0.91210   0.87450   Biso      1.000     H          0.137595  
         N1        1.0000    0.08370   0.00000   0.00000   Biso      1.000     N          -0.216577           
         N2        1.0000    0.28610   0.79930   0.99700   Biso      1.000     N          -0.22239499999999998          
         N3        1.0000    0.48100   0.00000   0.00000   Biso      1.000     N          -0.231555           
         N4        1.0000    0.28610   0.20070   0.00300   Biso      1.000     N          -0.22239499999999998          
         N5        1.0000    0.71390   0.70070   0.49700   Biso      1.000     N          -0.22239499999999998          
         N6        1.0000    0.71390   0.29930   0.50300   Biso      1.000     N          -0.22239499999999998          
         N7        1.0000    0.51900   0.50000   0.50000   Biso      1.000     N          -0.231555           
         N8        1.0000    0.91630   0.50000   0.50000   Biso      1.000     N          -0.216577           
         O1        1.0000    0.81190   0.62190   0.24960   Biso      1.000     O          -0.6581229999999999           
         O2        1.0000    0.71630   0.46650   0.32730   Biso      1.000     O          -0.644625           
         O3        1.0000    0.71630   0.53350   0.67270   Biso      1.000     O          -0.644626           
         O4        1.0000    0.61050   0.58440   0.21550   Biso      1.000     O          -0.642408           
         O5        1.0000    0.18810   0.12190   0.25040   Biso      1.000     O          -0.658122           
         O6        1.0000    0.61050   0.41560   0.78450   Biso      1.000     O          -0.642408           
         O7        1.0000    0.38950   0.08440   0.28450   Biso      1.000     O          -0.642408           
         O8        1.0000    0.28370   0.96650   0.17270   Biso      1.000     O          -0.644625           
         O9        1.0000    0.18810   0.87810   0.74960   Biso      1.000     O          -0.6581229999999999           
         O10       1.0000    0.38950   0.91560   0.71550   Biso      1.000     O          -0.642408           
         O11       1.0000    0.28370   0.03350   0.82730   Biso      1.000     O          -0.644625           
         O12       1.0000    0.81190   0.37810   0.75040   Biso      1.000     O          -0.6581229999999999           
         S1        1.0000    0.72160   0.46300   0.76011   Biso      1.000     S          1.221163  
         S2        1.0000    0.27840   0.03700   0.26011   Biso      1.000     S          1.2211610000000002  
         S3        1.0000    0.27840   0.96300   0.73989   Biso      1.000     S          1.2211610000000002  
         S4        1.0000    0.72160   0.53700   0.23989   Biso      1.000     S          1.221162 