
##########################################################################
#               Crystallographic Information Format file
#               Produced by PyCifRW module
#
#  This is a CIF file.  CIF has been adopted by the International
#  Union of Crystallography as the standard for data archiving and
#  transmission.
#
#  For information on this file format, follow the CIF links at
#  http://www.iucr.org
##########################################################################

data_image0

_cell_length_a                          22.219
_cell_length_b                          5.5243
_cell_length_c                          18.4719
_cell_angle_alpha                       90
_cell_angle_beta                        115.962
_cell_angle_gamma                       90
_symmetry_space_group_name_H-M          'P 1'
_symmetry_int_tables_number             1
loop_
  _symmetry_equiv_pos_as_xyz
         'x, y, z' 
loop_
  _atom_site_label
  _atom_site_occupancy
  _atom_site_fract_x
  _atom_site_fract_y
  _atom_site_fract_z
  _atom_site_thermal_displace_type
  _atom_site_B_iso_or_equiv
  _atom_site_type_symbol
  _atom_site_charge
         C1        1.0000    0.64490   0.60730   0.33038   Biso      1.000     C          -0.181282           
         C2        1.0000    0.83597   0.87450   0.05277   Biso      1.000     C          -0.20784299999999997          
         C3        1.0000    0.81942   0.07560   0.08661   Biso      1.000     C          0.159237  
         C4        1.0000    0.96644   0.40350   0.36828   Biso      1.000     C          0.6085659999999999  
         C5        1.0000    0.88620   0.72050   0.10131   Biso      1.000     C          0.082387  
         C6        1.0000    0.64490   0.39270   0.83038   Biso      1.000     C          -0.181282           
         C7        1.0000    0.85510   0.10730   0.16962   Biso      1.000     C          -0.181281           
         C8        1.0000    0.61380   0.77950   0.89869   Biso      1.000     C          0.082384  
         C9        1.0000    0.53356   0.09650   0.63172   Biso      1.000     C          0.6085659999999999  
         C10       1.0000    0.26756   0.75180   0.04005   Biso      1.000     C          -0.129678           
         C11       1.0000    0.46323   0.76270   0.43491   Biso      1.000     C          -0.25528  
         C12       1.0000    0.50035   0.56700   0.46642   Biso      1.000     C          -0.018675           
         C13       1.0000    0.68058   0.42440   0.91339   Biso      1.000     C          0.15923199999999998           
         C14       1.0000    0.40496   0.44490   0.21446   Biso      1.000     C          0.132607  
         C15       1.0000    0.66403   0.62550   0.94723   Biso      1.000     C          -0.207841           
         C16       1.0000    0.33597   0.37450   0.05277   Biso      1.000     C          -0.20784299999999997          
         C17       1.0000    0.85510   0.89270   0.66962   Biso      1.000     C          -0.181281           
         C18       1.0000    0.46644   0.90350   0.36828   Biso      1.000     C          0.6085699999999999  
         C19       1.0000    0.76756   0.74820   0.54005   Biso      1.000     C          -0.129678           
         C20       1.0000    0.59504   0.55510   0.78554   Biso      1.000     C          0.132606  
         C21       1.0000    0.90496   0.94490   0.21446   Biso      1.000     C          0.132606  
         C22       1.0000    0.00035   0.06700   0.46642   Biso      1.000     C          -0.018712           
         C23       1.0000    0.26756   0.24820   0.54005   Biso      1.000     C          -0.129678           
         C24       1.0000    0.46323   0.23730   0.93491   Biso      1.000     C          -0.25528  
         C25       1.0000    0.50035   0.43300   0.96642   Biso      1.000     C          -0.018678999999999998         
         C26       1.0000    0.40496   0.55510   0.71446   Biso      1.000     C          0.132607  
         C27       1.0000    0.88620   0.27950   0.60131   Biso      1.000     C          0.082385  
         C28       1.0000    0.33597   0.62550   0.55277   Biso      1.000     C          -0.20784299999999997          
         C29       1.0000    0.31942   0.42440   0.58661   Biso      1.000     C          0.159237  
         C30       1.0000    0.46644   0.09650   0.86828   Biso      1.000     C          0.6085699999999999  
         C31       1.0000    0.96644   0.59650   0.86828   Biso      1.000     C          0.6085659999999999  
         C32       1.0000    0.38620   0.77950   0.60131   Biso      1.000     C          0.082387  
         C33       1.0000    0.81942   0.92440   0.58661   Biso      1.000     C          0.159237  
         C34       1.0000    0.83597   0.12550   0.55277   Biso      1.000     C          -0.207841           
         C35       1.0000    0.35510   0.39270   0.66962   Biso      1.000     C          -0.181282           
         C36       1.0000    0.90496   0.05510   0.71446   Biso      1.000     C          0.132606  
         C37       1.0000    0.00035   0.93300   0.96642   Biso      1.000     C          -0.018712           
         C38       1.0000    0.76756   0.25180   0.04005   Biso      1.000     C          -0.129678           
         C39       1.0000    0.96323   0.26270   0.43491   Biso      1.000     C          -0.255244           
         C40       1.0000    0.96323   0.73730   0.93491   Biso      1.000     C          -0.255244           
         C41       1.0000    0.38620   0.22050   0.10131   Biso      1.000     C          0.082387  
         C42       1.0000    0.31942   0.57560   0.08661   Biso      1.000     C          0.159237  
         C43       1.0000    0.49965   0.43300   0.53358   Biso      1.000     C          -0.018716           
         C44       1.0000    0.18058   0.92440   0.91339   Biso      1.000     C          0.15923299999999999           
         C45       1.0000    0.14490   0.10730   0.33038   Biso      1.000     C          -0.181282           
         C46       1.0000    0.16403   0.12550   0.94723   Biso      1.000     C          -0.207842           
         C47       1.0000    0.09504   0.05510   0.78554   Biso      1.000     C          0.132607  
         C48       1.0000    0.73244   0.75180   0.45995   Biso      1.000     C          -0.129634           
         C49       1.0000    0.53677   0.76270   0.06509   Biso      1.000     C          -0.25528  
         C50       1.0000    0.49965   0.56700   0.03358   Biso      1.000     C          -0.018678999999999998         
         C51       1.0000    0.59504   0.44490   0.28554   Biso      1.000     C          0.132606  
         C52       1.0000    0.99965   0.93300   0.53358   Biso      1.000     C          -0.018712           
         C53       1.0000    0.66403   0.37450   0.44723   Biso      1.000     C          -0.20784299999999997          
         C54       1.0000    0.68058   0.57560   0.41339   Biso      1.000     C          0.15923299999999999           
         C55       1.0000    0.53356   0.90350   0.13172   Biso      1.000     C          0.6085699999999999  
         C56       1.0000    0.03677   0.73730   0.56509   Biso      1.000     C          -0.255243           
         C57       1.0000    0.23244   0.74820   0.95995   Biso      1.000     C          -0.129634           
         C58       1.0000    0.61380   0.22050   0.39869   Biso      1.000     C          0.082386  
         C59       1.0000    0.11380   0.72050   0.39869   Biso      1.000     C          0.082385  
         C60       1.0000    0.11380   0.27950   0.89869   Biso      1.000     C          0.082386  
         C61       1.0000    0.03356   0.59650   0.63172   Biso      1.000     C          0.6085659999999999  
         C62       1.0000    0.23244   0.25180   0.45995   Biso      1.000     C          -0.129634           
         C63       1.0000    0.03356   0.40350   0.13172   Biso      1.000     C          0.6085659999999999  
         C64       1.0000    0.99965   0.06700   0.03358   Biso      1.000     C          -0.018712           
         C65       1.0000    0.53677   0.23730   0.56509   Biso      1.000     C          -0.255244           
         C66       1.0000    0.18058   0.07560   0.41339   Biso      1.000     C          0.15923299999999999           
         C67       1.0000    0.16403   0.87450   0.44723   Biso      1.000     C          -0.207841           
         C68       1.0000    0.03677   0.26270   0.06509   Biso      1.000     C          -0.255244           
         C69       1.0000    0.35510   0.60730   0.16962   Biso      1.000     C          -0.181282           
         C70       1.0000    0.14490   0.89270   0.83038   Biso      1.000     C          -0.181283           
         C71       1.0000    0.09504   0.94490   0.28554   Biso      1.000     C          0.132606  
         C72       1.0000    0.73244   0.24820   0.95995   Biso      1.000     C          -0.129634           
         H1        1.0000    0.74040   0.12500   0.93080   Biso      1.000     H          0.120117  
         H2        1.0000    0.89660   0.41220   0.57790   Biso      1.000     H          0.09693600000000001           
         H3        1.0000    0.56560   0.17800   0.54400   Biso      1.000     H          0.12759600000000001           
         H4        1.0000    0.15460   0.76280   0.80520   Biso      1.000     H          0.135524  
         H5        1.0000    0.06560   0.67800   0.54400   Biso      1.000     H          0.12759600000000001           
         H6        1.0000    0.24040   0.62500   0.93080   Biso      1.000     H          0.120117  
         H7        1.0000    0.97030   0.98800   0.55540   Biso      1.000     H          0.097856  
         H8        1.0000    0.84540   0.76280   0.69480   Biso      1.000     H          0.135524  
         H9        1.0000    0.68690   0.65500   0.00220   Biso      1.000     H          0.13154200000000002           
         H10       1.0000    0.81310   0.15500   0.49780   Biso      1.000     H          0.13154200000000002           
         H11       1.0000    0.02970   0.98800   0.94460   Biso      1.000     H          0.097856  
         H12       1.0000    0.47030   0.48800   0.55540   Biso      1.000     H          0.097856  
         H13       1.0000    0.92820   0.03110   0.76970   Biso      1.000     H          0.102137  
         H14       1.0000    0.18690   0.15500   0.00220   Biso      1.000     H          0.131543  
         H15       1.0000    0.60340   0.91220   0.92210   Biso      1.000     H          0.09693600000000001           
         H16       1.0000    0.57180   0.53110   0.73030   Biso      1.000     H          0.102137  
         H17       1.0000    0.10340   0.41220   0.92210   Biso      1.000     H          0.09693600000000001           
         H18       1.0000    0.65460   0.26280   0.80520   Biso      1.000     H          0.135524  
         H19       1.0000    0.93440   0.67800   0.95600   Biso      1.000     H          0.12759600000000001           
         H20       1.0000    0.75960   0.62500   0.56920   Biso      1.000     H          0.12012   
         H21       1.0000    0.07180   0.03110   0.73030   Biso      1.000     H          0.102136  
         H22       1.0000    0.52970   0.48800   0.94460   Biso      1.000     H          0.097854  
         H23       1.0000    0.34540   0.26280   0.69480   Biso      1.000     H          0.135524  
         H24       1.0000    0.43440   0.17800   0.95600   Biso      1.000     H          0.127599  
         H25       1.0000    0.43440   0.82200   0.45600   Biso      1.000     H          0.127599  
         H26       1.0000    0.42820   0.46890   0.26970   Biso      1.000     H          0.102137  
         H27       1.0000    0.31310   0.34500   0.99780   Biso      1.000     H          0.131543  
         H28       1.0000    0.25960   0.12500   0.56920   Biso      1.000     H          0.12012   
         H29       1.0000    0.34540   0.73720   0.19480   Biso      1.000     H          0.135524  
         H30       1.0000    0.97030   0.01200   0.05540   Biso      1.000     H          0.097856  
         H31       1.0000    0.24040   0.37500   0.43080   Biso      1.000     H          0.120117  
         H32       1.0000    0.06560   0.32200   0.04400   Biso      1.000     H          0.12759700000000002           
         H33       1.0000    0.07180   0.96890   0.23030   Biso      1.000     H          0.102137  
         H34       1.0000    0.18690   0.84500   0.50220   Biso      1.000     H          0.131543  
         H35       1.0000    0.10340   0.58780   0.42210   Biso      1.000     H          0.09693600000000001           
         H36       1.0000    0.15460   0.23720   0.30520   Biso      1.000     H          0.135524  
         H37       1.0000    0.47030   0.51200   0.05540   Biso      1.000     H          0.097854  
         H38       1.0000    0.74040   0.87500   0.43080   Biso      1.000     H          0.120117  
         H39       1.0000    0.56560   0.82200   0.04400   Biso      1.000     H          0.127599  
         H40       1.0000    0.57180   0.46890   0.23030   Biso      1.000     H          0.102137  
         H41       1.0000    0.68690   0.34500   0.50220   Biso      1.000     H          0.131543  
         H42       1.0000    0.60340   0.08780   0.42210   Biso      1.000     H          0.09693600000000001           
         H43       1.0000    0.65460   0.73720   0.30520   Biso      1.000     H          0.135524  
         H44       1.0000    0.25960   0.87500   0.06920   Biso      1.000     H          0.12012   
         H45       1.0000    0.52970   0.51200   0.44460   Biso      1.000     H          0.097853  
         H46       1.0000    0.39660   0.08780   0.07790   Biso      1.000     H          0.09693600000000001           
         H47       1.0000    0.92820   0.96890   0.26970   Biso      1.000     H          0.102137  
         H48       1.0000    0.31310   0.65500   0.49780   Biso      1.000     H          0.131543  
         H49       1.0000    0.02970   0.01200   0.44460   Biso      1.000     H          0.097856  
         H50       1.0000    0.75960   0.37500   0.06920   Biso      1.000     H          0.12012   
         H51       1.0000    0.93440   0.32200   0.45600   Biso      1.000     H          0.12759700000000002           
         H52       1.0000    0.81310   0.84500   0.99780   Biso      1.000     H          0.131543  
         H53       1.0000    0.39660   0.91220   0.57790   Biso      1.000     H          0.09693600000000001           
         H54       1.0000    0.89660   0.58780   0.07790   Biso      1.000     H          0.09693600000000001           
         H55       1.0000    0.42820   0.53110   0.76970   Biso      1.000     H          0.102136  
         H56       1.0000    0.84540   0.23720   0.19480   Biso      1.000     H          0.135524  
         N1        1.0000    0.92106   0.75422   0.18149   Biso      1.000     N          -0.212513           
         N2        1.0000    0.07894   0.24578   0.81851   Biso      1.000     N          -0.212513           
         N3        1.0000    0.57894   0.74578   0.81851   Biso      1.000     N          -0.212513           
         N4        1.0000    0.57894   0.25422   0.31851   Biso      1.000     N          -0.212513           
         N5        1.0000    0.07894   0.75422   0.31851   Biso      1.000     N          -0.212513           
         N6        1.0000    0.42106   0.74578   0.68149   Biso      1.000     N          -0.212513           
         N7        1.0000    0.92106   0.24578   0.68149   Biso      1.000     N          -0.212513           
         N8        1.0000    0.42106   0.25422   0.18149   Biso      1.000     N          -0.21251399999999998          
         O1        1.0000    0.56339   0.09930   0.15187   Biso      1.000     O          -0.581341           
         O2        1.0000    0.00169   0.68198   0.83506   Biso      1.000     O          -0.576412           
         O3        1.0000    0.49831   0.81802   0.16494   Biso      1.000     O          -0.576412           
         O4        1.0000    0.93661   0.40070   0.84813   Biso      1.000     O          -0.58134  
         O5        1.0000    0.49831   0.18198   0.66494   Biso      1.000     O          -0.576412           
         O6        1.0000    0.06339   0.40070   0.65187   Biso      1.000     O          -0.58134  
         O7        1.0000    0.99831   0.31802   0.16494   Biso      1.000     O          -0.576412           
         O8        1.0000    0.06339   0.59930   0.15187   Biso      1.000     O          -0.581341           
         O9        1.0000    0.50169   0.18198   0.83506   Biso      1.000     O          -0.576412           
         O10       1.0000    0.56339   0.90070   0.65187   Biso      1.000     O          -0.581341           
         O11       1.0000    0.99831   0.68198   0.66494   Biso      1.000     O          -0.576412           
         O12       1.0000    0.50169   0.81802   0.33506   Biso      1.000     O          -0.5764130000000001           
         O13       1.0000    0.43661   0.09930   0.34813   Biso      1.000     O          -0.581341           
         O14       1.0000    0.93661   0.59930   0.34813   Biso      1.000     O          -0.581341           
         O15       1.0000    0.00169   0.31802   0.33506   Biso      1.000     O          -0.576412           
         O16       1.0000    0.43661   0.90070   0.84813   Biso      1.000     O          -0.581341           
         Zn1       1.0000    0.50000   0.96319   0.75000   Biso      1.000     Zn          0.736996  
         Zn2       1.0000    0.50000   0.03681   0.25000   Biso      1.000     Zn          0.736995  
         Zn3       1.0000    0.00000   0.53681   0.25000   Biso      1.000     Zn          0.736996  
         Zn4       1.0000    0.00000   0.46319   0.75000   Biso      1.000     Zn          0.736996 