
##########################################################################
#               Crystallographic Information Format file
#               Produced by PyCifRW module
#
#  This is a CIF file.  CIF has been adopted by the International
#  Union of Crystallography as the standard for data archiving and
#  transmission.
#
#  For information on this file format, follow the CIF links at
#  http://www.iucr.org
##########################################################################

data_image0

_cell_length_a                          10.2056
_cell_length_b                          10.8193
_cell_length_c                          13.0947
_cell_angle_alpha                       91.5103
_cell_angle_beta                        112.935
_cell_angle_gamma                       90
_symmetry_space_group_name_H-M          'P 1'
_symmetry_int_tables_number             1
loop_
  _symmetry_equiv_pos_as_xyz
         'x, y, z' 
loop_
  _atom_site_label
  _atom_site_occupancy
  _atom_site_fract_x
  _atom_site_fract_y
  _atom_site_fract_z
  _atom_site_thermal_displace_type
  _atom_site_B_iso_or_equiv
  _atom_site_type_symbol
  _atom_site_charge
         C1        1.0000    0.93500   0.06760   0.35320   Biso      1.000     C          0.071411  
         C2        1.0000    0.81740   0.01690   0.36520   Biso      1.000     C          0.015257  
         C3        1.0000    0.47150   0.27780   0.52040   Biso      1.000     C          0.20485799999999998           
         C4        1.0000    0.95110   0.22220   0.47960   Biso      1.000     C          0.204191  
         C5        1.0000    0.44030   0.45460   0.96580   Biso      1.000     C          -0.031432           
         C6        1.0000    0.44070   0.59190   0.69960   Biso      1.000     C          0.033627  
         C7        1.0000    0.80570   0.82380   0.25280   Biso      1.000     C          -0.10804200000000001          
         C8        1.0000    0.54420   0.77460   0.81480   Biso      1.000     C          -0.228256           
         C9        1.0000    0.45220   0.48310   0.63480   Biso      1.000     C          0.017043  
         C10       1.0000    0.47450   0.04540   0.03420   Biso      1.000     C          -0.031272           
         C11       1.0000    0.22220   0.92200   0.55800   Biso      1.000     C          0.051276999999999996          
         C12       1.0000    0.74110   0.90810   0.30040   Biso      1.000     C          0.035476  
         C13       1.0000    0.57810   0.21040   0.16620   Biso      1.000     C          0.276264  
         C14       1.0000    0.68070   0.38730   0.28120   Biso      1.000     C          -0.114044           
         C15       1.0000    0.68680   0.29040   0.21300   Biso      1.000     C          -0.205182           
         C16       1.0000    0.44710   0.32380   0.25280   Biso      1.000     C          -0.104965           
         C17       1.0000    0.18260   0.98310   0.63480   Biso      1.000     C          0.015259  
         C18       1.0000    0.47380   0.20960   0.78700   Biso      1.000     C          -0.202145           
         C19       1.0000    0.72940   0.72540   0.18520   Biso      1.000     C          -0.22644299999999998          
         C20       1.0000    0.55290   0.67620   0.74720   Biso      1.000     C          -0.104965           
         C21       1.0000    0.06500   0.93240   0.64680   Biso      1.000     C          0.07141   
         C22       1.0000    0.60050   0.88730   0.28120   Biso      1.000     C          -0.116164           
         C23       1.0000    0.45580   0.22540   0.18520   Biso      1.000     C          -0.22824699999999998          
         C24       1.0000    0.19430   0.17620   0.74720   Biso      1.000     C          -0.108045           
         C25       1.0000    0.31320   0.70960   0.78700   Biso      1.000     C          -0.205211           
         C26       1.0000    0.41820   0.56760   0.35320   Biso      1.000     C          0.069904  
         C27       1.0000    0.42190   0.78960   0.83380   Biso      1.000     C          0.276292  
         C28       1.0000    0.39950   0.11270   0.71880   Biso      1.000     C          -0.116164           
         C29       1.0000    0.52620   0.79040   0.21300   Biso      1.000     C          -0.20214300000000002          
         C30       1.0000    0.52850   0.72220   0.47960   Biso      1.000     C          0.204859  
         C31       1.0000    0.25890   0.09190   0.69960   Biso      1.000     C          0.035475  
         C32       1.0000    0.58810   0.71040   0.16620   Biso      1.000     C          0.27466799999999997           
         C33       1.0000    0.27060   0.27460   0.81480   Biso      1.000     C          -0.22644299999999998          
         C34       1.0000    0.54780   0.51690   0.36520   Biso      1.000     C          0.017043  
         C35       1.0000    0.04890   0.77780   0.52040   Biso      1.000     C          0.20419   
         C36       1.0000    0.66420   0.57800   0.44200   Biso      1.000     C          0.051064  
         C37       1.0000    0.77780   0.07800   0.44200   Biso      1.000     C          0.051275  
         C38       1.0000    0.31930   0.61270   0.71880   Biso      1.000     C          -0.114035           
         C39       1.0000    0.52550   0.95460   0.96580   Biso      1.000     C          -0.031271           
         C40       1.0000    0.55970   0.54540   0.03420   Biso      1.000     C          -0.031432           
         C41       1.0000    0.55930   0.40810   0.30040   Biso      1.000     C          0.033627  
         C42       1.0000    0.41190   0.28960   0.83380   Biso      1.000     C          0.27466599999999997           
         C43       1.0000    0.58180   0.43240   0.64680   Biso      1.000     C          0.069901  
         C44       1.0000    0.33580   0.42200   0.55800   Biso      1.000     C          0.051062  
         Cu1       1.0000    0.22548   0.73868   0.39506   Biso      1.000     Cu          0.483671  
         Cu2       1.0000    0.83042   0.76132   0.60494   Biso      1.000     Cu          0.483663  
         Cu3       1.0000    0.16958   0.23868   0.39506   Biso      1.000     Cu          0.48364700000000005           
         Cu4       1.0000    0.77452   0.26132   0.60494   Biso      1.000     Cu          0.483676  
         H1        1.0000    0.90160   0.83360   0.26640   Biso      1.000     H          0.11689000000000001           
         H2        1.0000    0.99660   0.29370   0.51800   Biso      1.000     H          0.07722000000000001           
         H3        1.0000    0.44470   0.06100   0.68520   Biso      1.000     H          0.11091199999999998           
         H4        1.0000    0.75950   0.43900   0.31480   Biso      1.000     H          0.11038099999999999           
         H5        1.0000    0.36480   0.33360   0.26640   Biso      1.000     H          0.11563   
         H6        1.0000    0.55530   0.93900   0.31480   Biso      1.000     H          0.11091300000000001           
         H7        1.0000    0.00340   0.70630   0.48200   Biso      1.000     H          0.07721900000000001           
         H8        1.0000    0.22640   0.32960   0.84660   Biso      1.000     H          0.133445  
         H9        1.0000    0.03090   0.97040   0.69600   Biso      1.000     H          0.11595499999999999           
         H10       1.0000    0.43820   0.00100   0.08120   Biso      1.000     H          0.08646000000000001           
         H11       1.0000    0.52140   0.79370   0.51800   Biso      1.000     H          0.076628  
         H12       1.0000    0.37980   0.17040   0.15340   Biso      1.000     H          0.133954  
         H13       1.0000    0.77360   0.67040   0.15340   Biso      1.000     H          0.13345   
         H14       1.0000    0.70200   0.04570   0.45580   Biso      1.000     H          0.10501600000000001           
         H15       1.0000    0.58610   0.59730   0.98580   Biso      1.000     H          0.08606799999999999           
         H16       1.0000    0.56180   0.99900   0.91880   Biso      1.000     H          0.08645900000000001           
         H17       1.0000    0.09840   0.16640   0.73360   Biso      1.000     H          0.11688699999999999           
         H18       1.0000    0.43010   0.78020   0.19880   Biso      1.000     H          0.13818   
         H19       1.0000    0.66510   0.47040   0.69600   Biso      1.000     H          0.11631500000000002           
         H20       1.0000    0.35700   0.49900   0.91880   Biso      1.000     H          0.086154  
         H21       1.0000    0.62020   0.82960   0.84660   Biso      1.000     H          0.133956  
         H22       1.0000    0.24050   0.56100   0.68520   Biso      1.000     H          0.11037999999999999           
         H23       1.0000    0.47860   0.20630   0.48200   Biso      1.000     H          0.076628  
         H24       1.0000    0.96910   0.02960   0.30400   Biso      1.000     H          0.11595699999999999           
         H25       1.0000    0.33490   0.52960   0.30400   Biso      1.000     H          0.116317  
         H26       1.0000    0.39970   0.09730   0.98580   Biso      1.000     H          0.085681  
         H27       1.0000    0.76870   0.28020   0.19880   Biso      1.000     H          0.139553  
         H28       1.0000    0.41390   0.40270   0.01420   Biso      1.000     H          0.08606699999999999           
         H29       1.0000    0.23130   0.71980   0.80120   Biso      1.000     H          0.139557  
         H30       1.0000    0.56990   0.21980   0.80120   Biso      1.000     H          0.138172  
         H31       1.0000    0.64300   0.50100   0.08120   Biso      1.000     H          0.086155  
         H32       1.0000    0.75380   0.54570   0.45580   Biso      1.000     H          0.104979  
         H33       1.0000    0.29800   0.95430   0.54420   Biso      1.000     H          0.10501600000000001           
         H34       1.0000    0.24620   0.45430   0.54420   Biso      1.000     H          0.104979  
         H35       1.0000    0.60030   0.90270   0.01420   Biso      1.000     H          0.085681  
         H36       1.0000    0.63520   0.66640   0.73360   Biso      1.000     H          0.11563   
         N1        1.0000    0.59090   0.33000   0.58980   Biso      1.000     N          -0.229104           
         N2        1.0000    0.98730   0.47600   0.71260   Biso      1.000     N          0.45319899999999996           
         N3        1.0000    0.84190   0.18100   0.49840   Biso      1.000     N          -0.22621  
         N4        1.0000    0.27470   0.02400   0.28740   Biso      1.000     N          0.45278999999999997           
         N5        1.0000    0.65650   0.68100   0.49840   Biso      1.000     N          -0.226106           
         N6        1.0000    0.00110   0.17000   0.41020   Biso      1.000     N          -0.22931500000000002          
         N7        1.0000    0.72530   0.97600   0.71260   Biso      1.000     N          0.452801  
         N8        1.0000    0.99890   0.83000   0.58980   Biso      1.000     N          -0.229321           
         N9        1.0000    0.15810   0.81900   0.50160   Biso      1.000     N          -0.22620900000000002          
         N10       1.0000    0.01270   0.52400   0.28740   Biso      1.000     N          0.4532    
         N11       1.0000    0.34350   0.31900   0.50160   Biso      1.000     N          -0.22610100000000002          
         N12       1.0000    0.40910   0.67000   0.41020   Biso      1.000     N          -0.229104           
         O1        1.0000    0.64960   0.98900   0.61580   Biso      1.000     O          -0.367442           
         O2        1.0000    0.10450   0.40020   0.28320   Biso      1.000     O          -0.463633           
         O3        1.0000    0.03380   0.51100   0.38420   Biso      1.000     O          -0.367964           
         O4        1.0000    0.96620   0.48900   0.61580   Biso      1.000     O          -0.367958           
         O5        1.0000    0.50440   0.61690   0.09840   Biso      1.000     O          -0.199914           
         O6        1.0000    0.49560   0.38310   0.90160   Biso      1.000     O          -0.199916           
         O7        1.0000    0.19260   0.10830   0.27540   Biso      1.000     O          -0.387696           
         O8        1.0000    0.80740   0.89170   0.72460   Biso      1.000     O          -0.387705           
         O9        1.0000    0.89550   0.59980   0.71680   Biso      1.000     O          -0.46362600000000004          
         O10       1.0000    0.08280   0.60830   0.27540   Biso      1.000     O          -0.387905           
         O11       1.0000    0.40600   0.88310   0.90160   Biso      1.000     O          -0.20068  
         O12       1.0000    0.82130   0.09980   0.71680   Biso      1.000     O          -0.46388199999999996          
         O13       1.0000    0.35040   0.01100   0.38420   Biso      1.000     O          -0.36744  
         O14       1.0000    0.59400   0.11690   0.09840   Biso      1.000     O          -0.200677           
         O15       1.0000    0.17870   0.90020   0.28320   Biso      1.000     O          -0.46387799999999996          
         O16       1.0000    0.91720   0.39170   0.72460   Biso      1.000     O          -0.387903 