
##########################################################################
#               Crystallographic Information Format file
#               Produced by PyCifRW module
#
#  This is a CIF file.  CIF has been adopted by the International
#  Union of Crystallography as the standard for data archiving and
#  transmission.
#
#  For information on this file format, follow the CIF links at
#  http://www.iucr.org
##########################################################################

data_image0

_cell_length_a                          7.3742
_cell_length_b                          11.4011
_cell_length_c                          11.6706
_cell_angle_alpha                       89.666
_cell_angle_beta                        76.813
_cell_angle_gamma                       74.971
_symmetry_space_group_name_H-M          'P 1'
_symmetry_int_tables_number             1
loop_
  _symmetry_equiv_pos_as_xyz
         'x, y, z' 
loop_
  _atom_site_label
  _atom_site_occupancy
  _atom_site_fract_x
  _atom_site_fract_y
  _atom_site_fract_z
  _atom_site_thermal_displace_type
  _atom_site_B_iso_or_equiv
  _atom_site_type_symbol
  _atom_site_charge
         C1        1.0000    0.13950   0.39039   0.50154   Biso      1.000     C          -0.021312           
         C2        1.0000    0.10060   0.97862   0.22770   Biso      1.000     C          0.681707  
         C3        1.0000    0.90720   0.27101   0.47119   Biso      1.000     C          0.6389229999999999  
         C4        1.0000    0.95790   0.38894   0.48529   Biso      1.000     C          -0.050276999999999995         
         C5        1.0000    0.17860   0.50135   0.51597   Biso      1.000     C          -0.136962           
         C6        1.0000    0.70160   0.72285   0.49377   Biso      1.000     C          0.684172  
         C7        1.0000    0.29840   0.27715   0.50623   Biso      1.000     C          0.684172  
         C8        1.0000    0.12880   0.03399   0.90564   Biso      1.000     C          -0.039895           
         C9        1.0000    0.03870   0.99074   0.11257   Biso      1.000     C          -0.058828           
         C10       1.0000    0.86050   0.60961   0.49846   Biso      1.000     C          -0.021312           
         C11       1.0000    0.27840   0.07364   0.81431   Biso      1.000     C          0.625084  
         C12       1.0000    0.04210   0.61106   0.51471   Biso      1.000     C          -0.050276           
         C13       1.0000    0.09280   0.72899   0.52881   Biso      1.000     C          0.6389229999999999  
         C14       1.0000    0.89940   0.02138   0.77230   Biso      1.000     C          0.681707  
         C15       1.0000    0.96130   0.00926   0.88743   Biso      1.000     C          -0.058828           
         C16       1.0000    0.83600   0.97520   0.98202   Biso      1.000     C          -0.116049           
         C17       1.0000    0.72160   0.92636   0.18569   Biso      1.000     C          0.625085  
         C18       1.0000    0.87120   0.96601   0.09436   Biso      1.000     C          -0.039895           
         C19       1.0000    0.82140   0.49865   0.48403   Biso      1.000     C          -0.136961           
         C20       1.0000    0.16400   0.02480   0.01798   Biso      1.000     C          -0.116049           
         H1        1.0000    0.27490   0.04190   0.03030   Biso      1.000     H          0.13708499999999998           
         H2        1.0000    0.34010   0.02370   0.47920   Biso      1.000     H          0.403476  
         H3        1.0000    0.65990   0.97630   0.52080   Biso      1.000     H          0.403476  
         H4        1.0000    0.70070   0.49770   0.47320   Biso      1.000     H          0.12521400000000002           
         H5        1.0000    0.72510   0.95810   0.96970   Biso      1.000     H          0.13708499999999998           
         H6        1.0000    0.29930   0.50230   0.52680   Biso      1.000     H          0.12521400000000002           
         Mg1       1.0000    0.54122   0.14697   0.67436   Biso      1.000     Mg          1.445028  
         Mg2       1.0000    0.45878   0.85303   0.32564   Biso      1.000     Mg          1.445028  
         Mg3       1.0000    0.00000   0.00000   0.50000   Biso      1.000     Mg          1.399813  
         Mg4       1.0000    0.68751   0.13197   0.36399   Biso      1.000     Mg          1.4300620000000002  
         Mg5       1.0000    0.31249   0.86803   0.63601   Biso      1.000     Mg          1.4300620000000002  
         O1        1.0000    0.32640   0.25246   0.60626   Biso      1.000     O          -0.6765680000000001           
         O2        1.0000    0.39710   0.22060   0.41132   Biso      1.000     O          -0.677716           
         O3        1.0000    0.00250   0.17899   0.51094   Biso      1.000     O          -0.634405           
         O4        1.0000    0.77400   0.27349   0.41980   Biso      1.000     O          -0.673234           
         O5        1.0000    0.97798   0.02162   0.32188   Biso      1.000     O          -0.703704           
         O6        1.0000    0.27420   0.92782   0.22082   Biso      1.000     O          -0.6346149999999999           
         O7        1.0000    0.32210   0.16767   0.83765   Biso      1.000     O          -0.5745239999999999           
         O8        1.0000    0.99750   0.82101   0.48906   Biso      1.000     O          -0.634405           
         O9        1.0000    0.70107   0.05109   0.52381   Biso      1.000     O          -1.154212           
         O10       1.0000    0.67360   0.74754   0.39374   Biso      1.000     O          -0.6765680000000001           
         O11       1.0000    0.29893   0.94891   0.47619   Biso      1.000     O          -1.154212           
         O12       1.0000    0.63365   0.99009   0.28043   Biso      1.000     O          -0.7183579999999999           
         O13       1.0000    0.67790   0.83233   0.16235   Biso      1.000     O          -0.5745239999999999           
         O14       1.0000    0.72580   0.07218   0.77918   Biso      1.000     O          -0.6346149999999999           
         O15       1.0000    0.02202   0.97838   0.67812   Biso      1.000     O          -0.703704           
         O16       1.0000    0.22600   0.72651   0.58020   Biso      1.000     O          -0.673234           
         O17       1.0000    0.60290   0.77940   0.58868   Biso      1.000     O          -0.677716           
         O18       1.0000    0.36635   0.00991   0.71957   Biso      1.000     O          -0.7183579999999999 