
##########################################################################
#               Crystallographic Information Format file
#               Produced by PyCifRW module
#
#  This is a CIF file.  CIF has been adopted by the International
#  Union of Crystallography as the standard for data archiving and
#  transmission.
#
#  For information on this file format, follow the CIF links at
#  http://www.iucr.org
##########################################################################

data_image0

_cell_length_a                          9.8475
_cell_length_b                          29.058
_cell_length_c                          10.8151
_cell_angle_alpha                       90
_cell_angle_beta                        92.311
_cell_angle_gamma                       90
_symmetry_space_group_name_H-M          'P 1'
_symmetry_int_tables_number             1
loop_
  _symmetry_equiv_pos_as_xyz
         'x, y, z' 
loop_
  _atom_site_label
  _atom_site_occupancy
  _atom_site_fract_x
  _atom_site_fract_y
  _atom_site_fract_z
  _atom_site_thermal_displace_type
  _atom_site_B_iso_or_equiv
  _atom_site_type_symbol
  _atom_site_charge
         C1        1.0000    0.07640   0.34910   0.91230   Biso      1.000     C          -0.040457           
         C2        1.0000    0.73650   0.97700   0.32690   Biso      1.000     C          0.636264  
         C3        1.0000    0.88180   0.98940   0.35980   Biso      1.000     C          -0.057047           
         C4        1.0000    0.68880   0.48540   0.05900   Biso      1.000     C          0.67085   
         C5        1.0000    0.97380   0.98660   0.26960   Biso      1.000     C          -0.10931800000000001          
         C6        1.0000    0.73180   0.76743   0.53030   Biso      1.000     C          0.727712  
         C7        1.0000    0.29580   0.76150   0.39400   Biso      1.000     C          0.6266579999999999  
         C8        1.0000    0.35210   0.82250   0.59830   Biso      1.000     C          0.720909  
         C9        1.0000    0.78070   0.86584   0.58000   Biso      1.000     C          0.606243  
         C10       1.0000    0.96810   0.80716   0.53260   Biso      1.000     C          0.043063  
         C11       1.0000    0.87770   0.77168   0.48960   Biso      1.000     C          -0.086993           
         C12       1.0000    0.88640   0.48840   0.20240   Biso      1.000     C          -0.107616           
         C13       1.0000    0.92490   0.73610   0.42060   Biso      1.000     C          -0.10992400000000001          
         C14       1.0000    0.06300   0.73310   0.39260   Biso      1.000     C          -0.07766  
         C15       1.0000    0.15500   0.76380   0.44000   Biso      1.000     C          -0.032773000000000004         
         C16       1.0000    0.11160   0.80156   0.51580   Biso      1.000     C          0.042345999999999995          
         C17       1.0000    0.20500   0.83340   0.57520   Biso      1.000     C          -0.079487           
         C18       1.0000    0.15680   0.87210   0.62900   Biso      1.000     C          -0.068448           
         C19       1.0000    0.92860   0.99878   0.48600   Biso      1.000     C          0.023336000000000003          
         C20       1.0000    0.07640   0.15090   0.41230   Biso      1.000     C          -0.040457           
         C21       1.0000    0.83850   0.00640   0.58300   Biso      1.000     C          -0.074435           
         C22       1.0000    0.88640   0.01160   0.70240   Biso      1.000     C          -0.107607           
         C23       1.0000    0.01650   0.61960   0.13380   Biso      1.000     C          -0.070641           
         C24       1.0000    0.92360   0.65090   0.08770   Biso      1.000     C          -0.040449           
         C25       1.0000    0.11160   0.69844   0.01580   Biso      1.000     C          0.042347  
         C26       1.0000    0.15500   0.73620   0.94000   Biso      1.000     C          -0.032784           
         C27       1.0000    0.06300   0.76690   0.89260   Biso      1.000     C          -0.07764800000000001          
         C28       1.0000    0.92490   0.76390   0.92060   Biso      1.000     C          -0.10993199999999999          
         C29       1.0000    0.87770   0.72832   0.98960   Biso      1.000     C          -0.086985           
         C30       1.0000    0.96810   0.69284   0.03260   Biso      1.000     C          0.043062  
         C31       1.0000    0.78070   0.63416   0.08000   Biso      1.000     C          0.606243  
         C32       1.0000    0.35210   0.67750   0.09830   Biso      1.000     C          0.720909  
         C33       1.0000    0.29580   0.73850   0.89400   Biso      1.000     C          0.626659  
         C34       1.0000    0.73180   0.73257   0.03030   Biso      1.000     C          0.727712  
         C35       1.0000    0.97380   0.51340   0.76960   Biso      1.000     C          -0.10933499999999999          
         C36       1.0000    0.88180   0.51060   0.85980   Biso      1.000     C          -0.05703  
         C37       1.0000    0.73650   0.52300   0.82690   Biso      1.000     C          0.636263  
         C38       1.0000    0.92860   0.50122   0.98600   Biso      1.000     C          0.023334  
         C39       1.0000    0.83850   0.49360   0.08300   Biso      1.000     C          -0.07442599999999999          
         C40       1.0000    0.68880   0.01460   0.55900   Biso      1.000     C          0.670851  
         C41       1.0000    0.20500   0.66660   0.07520   Biso      1.000     C          -0.079487           
         C42       1.0000    0.01650   0.88040   0.63380   Biso      1.000     C          -0.070642           
         C43       1.0000    0.98350   0.11960   0.36620   Biso      1.000     C          -0.070633           
         C44       1.0000    0.02620   0.48660   0.23040   Biso      1.000     C          -0.10933499999999999          
         C45       1.0000    0.26820   0.26743   0.96970   Biso      1.000     C          0.727712  
         C46       1.0000    0.70420   0.26150   0.10600   Biso      1.000     C          0.6266579999999999  
         C47       1.0000    0.64790   0.32250   0.90170   Biso      1.000     C          0.720909  
         C48       1.0000    0.21930   0.36584   0.92000   Biso      1.000     C          0.606244  
         C49       1.0000    0.03190   0.30716   0.96740   Biso      1.000     C          0.043063  
         C50       1.0000    0.12230   0.27168   0.01040   Biso      1.000     C          -0.086993           
         C51       1.0000    0.07140   0.00122   0.51400   Biso      1.000     C          0.023334  
         C52       1.0000    0.26350   0.02300   0.67310   Biso      1.000     C          0.636263  
         C53       1.0000    0.07510   0.23610   0.07940   Biso      1.000     C          -0.10992400000000001          
         C54       1.0000    0.93700   0.23310   0.10740   Biso      1.000     C          -0.07766  
         C55       1.0000    0.84500   0.26380   0.06000   Biso      1.000     C          -0.032773000000000004         
         C56       1.0000    0.88840   0.30156   0.98420   Biso      1.000     C          0.042345999999999995          
         C57       1.0000    0.79500   0.33340   0.92480   Biso      1.000     C          -0.079487           
         C58       1.0000    0.31120   0.98540   0.44100   Biso      1.000     C          0.67085   
         C59       1.0000    0.84320   0.37210   0.87100   Biso      1.000     C          -0.068449           
         C60       1.0000    0.11360   0.98840   0.29760   Biso      1.000     C          -0.107619           
         C61       1.0000    0.98350   0.38040   0.86620   Biso      1.000     C          -0.070634           
         C62       1.0000    0.16150   0.99360   0.41700   Biso      1.000     C          -0.074425           
         C63       1.0000    0.11820   0.48940   0.14020   Biso      1.000     C          -0.05703  
         C64       1.0000    0.26350   0.47700   0.17310   Biso      1.000     C          0.636263  
         C65       1.0000    0.07140   0.49878   0.01400   Biso      1.000     C          0.023334  
         C66       1.0000    0.84320   0.12790   0.37100   Biso      1.000     C          -0.068458           
         C67       1.0000    0.79500   0.16660   0.42480   Biso      1.000     C          -0.079478           
         C68       1.0000    0.88840   0.19844   0.48420   Biso      1.000     C          0.042345999999999995          
         C69       1.0000    0.84500   0.23620   0.56000   Biso      1.000     C          -0.032784           
         C70       1.0000    0.93700   0.26690   0.60740   Biso      1.000     C          -0.07764700000000001          
         C71       1.0000    0.07510   0.26390   0.57940   Biso      1.000     C          -0.10993199999999999          
         C72       1.0000    0.12230   0.22832   0.51040   Biso      1.000     C          -0.086985           
         C73       1.0000    0.92360   0.84910   0.58770   Biso      1.000     C          -0.040449           
         C74       1.0000    0.03190   0.19284   0.46740   Biso      1.000     C          0.043063  
         C75       1.0000    0.64790   0.17750   0.40170   Biso      1.000     C          0.720908  
         C76       1.0000    0.70420   0.23850   0.60600   Biso      1.000     C          0.626659  
         C77       1.0000    0.26820   0.23257   0.46970   Biso      1.000     C          0.727712  
         C78       1.0000    0.02620   0.01340   0.73040   Biso      1.000     C          -0.10933599999999999          
         C79       1.0000    0.11820   0.01060   0.64020   Biso      1.000     C          -0.05703  
         C80       1.0000    0.11360   0.51160   0.79760   Biso      1.000     C          -0.107617           
         C81       1.0000    0.31120   0.51460   0.94100   Biso      1.000     C          0.67085   
         C82       1.0000    0.16150   0.50640   0.91700   Biso      1.000     C          -0.074425           
         C83       1.0000    0.21930   0.13416   0.42000   Biso      1.000     C          0.606244  
         C84       1.0000    0.15680   0.62790   0.12900   Biso      1.000     C          -0.068448           
         Er1       1.0000    0.54488   0.58123   0.04236   Biso      1.000     Er          2.127983  
         Er2       1.0000    0.53891   0.74830   0.76274   Biso      1.000     Er          2.1990819999999998  
         Er3       1.0000    0.53891   0.75170   0.26274   Biso      1.000     Er          2.1990830000000003  
         Er4       1.0000    0.46109   0.24830   0.73726   Biso      1.000     Er          2.1990830000000003  
         Er5       1.0000    0.45512   0.08123   0.45764   Biso      1.000     Er          2.127982  
         Er6       1.0000    0.54488   0.91877   0.54236   Biso      1.000     Er          2.127983  
         Er7       1.0000    0.46109   0.25170   0.23726   Biso      1.000     Er          2.1990830000000003  
         Er8       1.0000    0.45512   0.41877   0.95764   Biso      1.000     Er          2.127983  
         H1        1.0000    0.21920   0.89390   0.66400   Biso      1.000     H          0.128003  
         H2        1.0000    0.98560   0.90820   0.66960   Biso      1.000     H          0.13298800000000002           
         H3        1.0000    0.21920   0.60610   0.16400   Biso      1.000     H          0.128003  
         H4        1.0000    0.78080   0.10610   0.33600   Biso      1.000     H          0.128004  
         H5        1.0000    0.90770   0.29070   0.66030   Biso      1.000     H          0.126618  
         H6        1.0000    0.13650   0.28700   0.60890   Biso      1.000     H          0.117395  
         H7        1.0000    0.05760   0.01670   0.81410   Biso      1.000     H          0.125224  
         H8        1.0000    0.17580   0.51410   0.73300   Biso      1.000     H          0.131105  
         H9        1.0000    0.05760   0.48330   0.31410   Biso      1.000     H          0.125223  
         H10       1.0000    0.13650   0.21300   0.10890   Biso      1.000     H          0.117395  
         H11       1.0000    0.90770   0.20930   0.16030   Biso      1.000     H          0.126619  
         H12       1.0000    0.78080   0.39390   0.83600   Biso      1.000     H          0.128004  
         H13       1.0000    0.01440   0.40820   0.83040   Biso      1.000     H          0.132987  
         H14       1.0000    0.17580   0.98590   0.23300   Biso      1.000     H          0.131105  
         H15       1.0000    0.09230   0.70930   0.33970   Biso      1.000     H          0.126619  
         H16       1.0000    0.82420   0.48590   0.26700   Biso      1.000     H          0.131105  
         H17       1.0000    0.98560   0.59180   0.16960   Biso      1.000     H          0.13298800000000002           
         H18       1.0000    0.01440   0.09180   0.33040   Biso      1.000     H          0.132987  
         H19       1.0000    0.86350   0.78700   0.89110   Biso      1.000     H          0.117395  
         H20       1.0000    0.94240   0.51670   0.68590   Biso      1.000     H          0.125223  
         H21       1.0000    0.09230   0.79070   0.83970   Biso      1.000     H          0.126618  
         H22       1.0000    0.94240   0.98330   0.18590   Biso      1.000     H          0.125222  
         H23       1.0000    0.82420   0.01410   0.76700   Biso      1.000     H          0.131105  
         H24       1.0000    0.86350   0.71300   0.39110   Biso      1.000     H          0.117395  
         O1        1.0000    0.56340   0.35413   0.90390   Biso      1.000     O          -0.713494           
         O2        1.0000    0.29300   0.35851   0.01520   Biso      1.000     O          -0.656805           
         O3        1.0000    0.26440   0.39064   0.83350   Biso      1.000     O          -0.671894           
         O4        1.0000    0.71180   0.77296   0.64220   Biso      1.000     O          -0.705467           
         O5        1.0000    0.64250   0.75534   0.45080   Biso      1.000     O          -0.770486           
         O6        1.0000    0.68450   0.99100   0.22500   Biso      1.000     O          -0.5768439999999999           
         O7        1.0000    0.67790   0.95016   0.39840   Biso      1.000     O          -0.743406           
         O8        1.0000    0.66000   0.04627   0.48480   Biso      1.000     O          -0.686875           
         O9        1.0000    0.26440   0.10936   0.33350   Biso      1.000     O          -0.6718930000000001           
         O10       1.0000    0.29300   0.14149   0.51520   Biso      1.000     O          -0.656805           
         O11       1.0000    0.56340   0.14587   0.40390   Biso      1.000     O          -0.713494           
         O12       1.0000    0.61730   0.21818   0.37120   Biso      1.000     O          -0.717008           
         O13       1.0000    0.64660   0.20327   0.64760   Biso      1.000     O          -0.675454           
         O14       1.0000    0.64620   0.27765   0.61260   Biso      1.000     O          -0.66157  
         O15       1.0000    0.28820   0.22704   0.35780   Biso      1.000     O          -0.705467           
         O16       1.0000    0.35750   0.24466   0.54920   Biso      1.000     O          -0.770486           
         O17       1.0000    0.31550   0.00900   0.77500   Biso      1.000     O          -0.5768439999999999           
         O18       1.0000    0.32210   0.04984   0.60160   Biso      1.000     O          -0.743406           
         O19       1.0000    0.34000   0.95373   0.51520   Biso      1.000     O          -0.686876           
         O20       1.0000    0.39500   0.00910   0.38390   Biso      1.000     O          -0.691692           
         O21       1.0000    0.60500   0.99090   0.61610   Biso      1.000     O          -0.691692           
         O22       1.0000    0.61730   0.28182   0.87120   Biso      1.000     O          -0.717008           
         O23       1.0000    0.73560   0.60936   0.16650   Biso      1.000     O          -0.671894           
         O24       1.0000    0.28820   0.27296   0.85780   Biso      1.000     O          -0.705467           
         O25       1.0000    0.70700   0.64149   0.98480   Biso      1.000     O          -0.656805           
         O26       1.0000    0.43660   0.64587   0.09610   Biso      1.000     O          -0.713494           
         O27       1.0000    0.38270   0.71818   0.12880   Biso      1.000     O          -0.717008           
         O28       1.0000    0.35340   0.70327   0.85240   Biso      1.000     O          -0.675454           
         O29       1.0000    0.35380   0.77765   0.88740   Biso      1.000     O          -0.66157  
         O30       1.0000    0.71180   0.72704   0.14220   Biso      1.000     O          -0.705467           
         O31       1.0000    0.64250   0.74466   0.95080   Biso      1.000     O          -0.770486           
         O32       1.0000    0.68450   0.50900   0.72500   Biso      1.000     O          -0.576843           
         O33       1.0000    0.67790   0.54984   0.89840   Biso      1.000     O          -0.743406           
         O34       1.0000    0.66000   0.45373   0.98480   Biso      1.000     O          -0.686876           
         O35       1.0000    0.64660   0.29673   0.14760   Biso      1.000     O          -0.675453           
         O36       1.0000    0.60500   0.50910   0.11610   Biso      1.000     O          -0.691692           
         O37       1.0000    0.70700   0.85851   0.48480   Biso      1.000     O          -0.656805           
         O38       1.0000    0.43660   0.85413   0.59610   Biso      1.000     O          -0.713494           
         O39       1.0000    0.38270   0.78182   0.62880   Biso      1.000     O          -0.717008           
         O40       1.0000    0.39500   0.49090   0.88390   Biso      1.000     O          -0.691692           
         O41       1.0000    0.34000   0.54627   0.01520   Biso      1.000     O          -0.686875           
         O42       1.0000    0.32210   0.45016   0.10160   Biso      1.000     O          -0.743406           
         O43       1.0000    0.31550   0.49100   0.27500   Biso      1.000     O          -0.5768439999999999           
         O44       1.0000    0.35340   0.79673   0.35240   Biso      1.000     O          -0.675453           
         O45       1.0000    0.35750   0.25534   0.04920   Biso      1.000     O          -0.770486           
         O46       1.0000    0.35380   0.72235   0.38740   Biso      1.000     O          -0.66157  
         O47       1.0000    0.73560   0.89064   0.66650   Biso      1.000     O          -0.671894           
         O48       1.0000    0.64620   0.22235   0.11260   Biso      1.000     O          -0.661569 