
##########################################################################
#               Crystallographic Information Format file
#               Produced by PyCifRW module
#
#  This is a CIF file.  CIF has been adopted by the International
#  Union of Crystallography as the standard for data archiving and
#  transmission.
#
#  For information on this file format, follow the CIF links at
#  http://www.iucr.org
##########################################################################

data_image0

_cell_length_a                          9.8605
_cell_length_b                          29.21
_cell_length_c                          10.8652
_cell_angle_alpha                       90
_cell_angle_beta                        92.203
_cell_angle_gamma                       90
_symmetry_space_group_name_H-M          'P 1'
_symmetry_int_tables_number             1
loop_
  _symmetry_equiv_pos_as_xyz
         'x, y, z' 
loop_
  _atom_site_label
  _atom_site_occupancy
  _atom_site_fract_x
  _atom_site_fract_y
  _atom_site_fract_z
  _atom_site_thermal_displace_type
  _atom_site_B_iso_or_equiv
  _atom_site_type_symbol
  _atom_site_charge
         C1        1.0000    0.07490   0.34892   0.91260   Biso      1.000     C          -0.049192           
         C2        1.0000    0.88730   0.19888   0.48270   Biso      1.000     C          0.039913  
         C3        1.0000    0.84310   0.23555   0.55850   Biso      1.000     C          -0.036038           
         C4        1.0000    0.93540   0.26665   0.60490   Biso      1.000     C          -0.085439           
         C5        1.0000    0.07350   0.26392   0.57740   Biso      1.000     C          -0.111469           
         C6        1.0000    0.12130   0.22866   0.50990   Biso      1.000     C          -0.093547           
         C7        1.0000    0.03000   0.19295   0.46620   Biso      1.000     C          0.041494  
         C8        1.0000    0.21830   0.13458   0.42030   Biso      1.000     C          0.592793  
         C9        1.0000    0.64600   0.17752   0.40080   Biso      1.000     C          0.693358  
         C10       1.0000    0.70250   0.23832   0.60580   Biso      1.000     C          0.617442  
         C11       1.0000    0.88650   0.01170   0.70180   Biso      1.000     C          -0.110632           
         C12       1.0000    0.68960   0.01416   0.55890   Biso      1.000     C          0.658218  
         C13       1.0000    0.83830   0.00630   0.58250   Biso      1.000     C          -0.082509           
         C14       1.0000    0.92840   0.99891   0.48570   Biso      1.000     C          0.022225  
         C15       1.0000    0.73730   0.97647   0.32710   Biso      1.000     C          0.619908  
         C16       1.0000    0.88270   0.98905   0.36090   Biso      1.000     C          -0.058556           
         C17       1.0000    0.97360   0.98603   0.27130   Biso      1.000     C          -0.110352           
         C18       1.0000    0.29750   0.76168   0.39420   Biso      1.000     C          0.617443  
         C19       1.0000    0.35400   0.82248   0.59920   Biso      1.000     C          0.693353  
         C20       1.0000    0.78170   0.86542   0.57970   Biso      1.000     C          0.592803  
         C21       1.0000    0.97000   0.80705   0.53380   Biso      1.000     C          0.041492  
         C22       1.0000    0.87870   0.77134   0.49010   Biso      1.000     C          -0.093558           
         C23       1.0000    0.79410   0.16721   0.42500   Biso      1.000     C          -0.085531           
         C24       1.0000    0.92650   0.73608   0.42260   Biso      1.000     C          -0.111464           
         C25       1.0000    0.84190   0.12826   0.37080   Biso      1.000     C          -0.078205           
         C26       1.0000    0.01720   0.61988   0.13170   Biso      1.000     C          -0.070975           
         C27       1.0000    0.07490   0.15108   0.41260   Biso      1.000     C          -0.04919  
         C28       1.0000    0.98280   0.11988   0.36830   Biso      1.000     C          -0.070947           
         C29       1.0000    0.88650   0.48830   0.20180   Biso      1.000     C          -0.110625           
         C30       1.0000    0.68960   0.48584   0.05890   Biso      1.000     C          0.658203  
         C31       1.0000    0.83830   0.49370   0.08250   Biso      1.000     C          -0.082508           
         C32       1.0000    0.92840   0.50109   0.98570   Biso      1.000     C          0.022228  
         C33       1.0000    0.73730   0.52353   0.82710   Biso      1.000     C          0.619903  
         C34       1.0000    0.88270   0.51095   0.86090   Biso      1.000     C          -0.05855  
         C35       1.0000    0.97360   0.51397   0.77130   Biso      1.000     C          -0.110344           
         C36       1.0000    0.73390   0.73242   0.02880   Biso      1.000     C          0.706571  
         C37       1.0000    0.29750   0.73832   0.89420   Biso      1.000     C          0.617442  
         C38       1.0000    0.35400   0.67752   0.09920   Biso      1.000     C          0.693354  
         C39       1.0000    0.78170   0.63458   0.07970   Biso      1.000     C          0.592806  
         C40       1.0000    0.97000   0.69295   0.03380   Biso      1.000     C          0.041493  
         C41       1.0000    0.87870   0.72866   0.99010   Biso      1.000     C          -0.09356  
         C42       1.0000    0.92650   0.76392   0.92260   Biso      1.000     C          -0.111457           
         C43       1.0000    0.06460   0.76665   0.89510   Biso      1.000     C          -0.085447           
         C44       1.0000    0.15690   0.73555   0.94150   Biso      1.000     C          -0.036031           
         C45       1.0000    0.11270   0.69888   0.01730   Biso      1.000     C          0.039909  
         C46       1.0000    0.20590   0.66721   0.07500   Biso      1.000     C          -0.085519           
         C47       1.0000    0.15810   0.62826   0.12920   Biso      1.000     C          -0.078221           
         C48       1.0000    0.92510   0.65108   0.08740   Biso      1.000     C          -0.049182           
         C49       1.0000    0.06460   0.73335   0.39510   Biso      1.000     C          -0.085453           
         C50       1.0000    0.73390   0.76758   0.52880   Biso      1.000     C          0.706571  
         C51       1.0000    0.07160   0.49891   0.01430   Biso      1.000     C          0.022228  
         C52       1.0000    0.88730   0.30112   0.98270   Biso      1.000     C          0.03991   
         C53       1.0000    0.84310   0.26445   0.05850   Biso      1.000     C          -0.036038           
         C54       1.0000    0.93540   0.23335   0.10490   Biso      1.000     C          -0.085443           
         C55       1.0000    0.07350   0.23608   0.07740   Biso      1.000     C          -0.111473           
         C56       1.0000    0.12130   0.27134   0.00990   Biso      1.000     C          -0.093546           
         C57       1.0000    0.11350   0.51170   0.79820   Biso      1.000     C          -0.110624           
         C58       1.0000    0.03000   0.30705   0.96620   Biso      1.000     C          0.041492  
         C59       1.0000    0.31040   0.51416   0.94110   Biso      1.000     C          0.658204  
         C60       1.0000    0.16170   0.50630   0.91750   Biso      1.000     C          -0.082509           
         C61       1.0000    0.15690   0.76445   0.44150   Biso      1.000     C          -0.036031           
         C62       1.0000    0.21830   0.36542   0.92030   Biso      1.000     C          0.592804  
         C63       1.0000    0.26270   0.47647   0.17290   Biso      1.000     C          0.619902  
         C64       1.0000    0.64600   0.32248   0.90080   Biso      1.000     C          0.693353  
         C65       1.0000    0.11730   0.48905   0.13910   Biso      1.000     C          -0.058549           
         C66       1.0000    0.02640   0.48603   0.22870   Biso      1.000     C          -0.110345           
         C67       1.0000    0.26610   0.26758   0.97120   Biso      1.000     C          0.706572  
         C68       1.0000    0.31040   0.98584   0.44110   Biso      1.000     C          0.65821   
         C69       1.0000    0.11350   0.98830   0.29820   Biso      1.000     C          -0.110633           
         C70       1.0000    0.79410   0.33279   0.92500   Biso      1.000     C          -0.085522           
         C71       1.0000    0.11270   0.80112   0.51730   Biso      1.000     C          0.039909  
         C72       1.0000    0.98280   0.38012   0.86830   Biso      1.000     C          -0.070959           
         C73       1.0000    0.20590   0.83279   0.57500   Biso      1.000     C          -0.085521           
         C74       1.0000    0.15810   0.87174   0.62920   Biso      1.000     C          -0.078214           
         C75       1.0000    0.01720   0.88012   0.63170   Biso      1.000     C          -0.070969           
         C76       1.0000    0.16170   0.99370   0.41750   Biso      1.000     C          -0.082503           
         C77       1.0000    0.84190   0.37174   0.87080   Biso      1.000     C          -0.078216           
         C78       1.0000    0.26610   0.23242   0.47120   Biso      1.000     C          0.706569  
         C79       1.0000    0.92510   0.84892   0.58740   Biso      1.000     C          -0.049182           
         C80       1.0000    0.02640   0.01397   0.72870   Biso      1.000     C          -0.110365           
         C81       1.0000    0.11730   0.01095   0.63910   Biso      1.000     C          -0.058536           
         C82       1.0000    0.26270   0.02353   0.67290   Biso      1.000     C          0.619903  
         C83       1.0000    0.07160   0.00109   0.51430   Biso      1.000     C          0.022222  
         C84       1.0000    0.70250   0.26168   0.10580   Biso      1.000     C          0.617444  
         H1        1.0000    0.90630   0.20990   0.15550   Biso      1.000     H          0.124549  
         H2        1.0000    0.82600   0.48610   0.26510   Biso      1.000     H          0.130912  
         H3        1.0000    0.94260   0.51760   0.68990   Biso      1.000     H          0.125663  
         H4        1.0000    0.01330   0.09250   0.33560   Biso      1.000     H          0.131038  
         H5        1.0000    0.78100   0.39270   0.83560   Biso      1.000     H          0.131006  
         H6        1.0000    0.01330   0.40750   0.83560   Biso      1.000     H          0.131033  
         H7        1.0000    0.86700   0.78660   0.89410   Biso      1.000     H          0.119219  
         H8        1.0000    0.13300   0.21340   0.10590   Biso      1.000     H          0.119219  
         H9        1.0000    0.09370   0.70990   0.34450   Biso      1.000     H          0.124549  
         H10       1.0000    0.05740   0.48240   0.31010   Biso      1.000     H          0.125662  
         H11       1.0000    0.86700   0.71340   0.39410   Biso      1.000     H          0.119216  
         H12       1.0000    0.21900   0.89270   0.66440   Biso      1.000     H          0.131006  
         H13       1.0000    0.98670   0.90750   0.66440   Biso      1.000     H          0.131034  
         H14       1.0000    0.94260   0.98240   0.18990   Biso      1.000     H          0.125662  
         H15       1.0000    0.05740   0.01760   0.81010   Biso      1.000     H          0.125662  
         H16       1.0000    0.82600   0.01390   0.76510   Biso      1.000     H          0.13091   
         H17       1.0000    0.09370   0.79010   0.84450   Biso      1.000     H          0.124552  
         H18       1.0000    0.13300   0.28660   0.60590   Biso      1.000     H          0.11922   
         H19       1.0000    0.17400   0.98610   0.23490   Biso      1.000     H          0.130911  
         H20       1.0000    0.90630   0.29010   0.65550   Biso      1.000     H          0.124551  
         H21       1.0000    0.17400   0.51390   0.73490   Biso      1.000     H          0.130912  
         H22       1.0000    0.78100   0.10730   0.33560   Biso      1.000     H          0.131009  
         H23       1.0000    0.98670   0.59250   0.16440   Biso      1.000     H          0.131031  
         H24       1.0000    0.21900   0.60730   0.16440   Biso      1.000     H          0.131003  
         O1        1.0000    0.26260   0.10962   0.33470   Biso      1.000     O          -0.626511           
         O2        1.0000    0.56270   0.14555   0.40370   Biso      1.000     O          -0.644559           
         O3        1.0000    0.61550   0.21764   0.37000   Biso      1.000     O          -0.655859           
         O4        1.0000    0.65850   0.45405   0.98590   Biso      1.000     O          -0.633158           
         O5        1.0000    0.28720   0.22726   0.35920   Biso      1.000     O          -0.647747           
         O6        1.0000    0.35530   0.24478   0.54920   Biso      1.000     O          -0.684072           
         O7        1.0000    0.60690   0.50968   0.11610   Biso      1.000     O          -0.630947           
         O8        1.0000    0.29090   0.14157   0.51560   Biso      1.000     O          -0.621583           
         O9        1.0000    0.67770   0.55007   0.89840   Biso      1.000     O          -0.687153           
         O10       1.0000    0.67770   0.94993   0.39840   Biso      1.000     O          -0.687151           
         O11       1.0000    0.64470   0.74478   0.95080   Biso      1.000     O          -0.68407  
         O12       1.0000    0.73740   0.89038   0.66530   Biso      1.000     O          -0.626532           
         O13       1.0000    0.34150   0.95405   0.51410   Biso      1.000     O          -0.633163           
         O14       1.0000    0.39310   0.00968   0.38390   Biso      1.000     O          -0.630985           
         O15       1.0000    0.39310   0.49032   0.88390   Biso      1.000     O          -0.63095  
         O16       1.0000    0.34150   0.54595   0.01410   Biso      1.000     O          -0.633151           
         O17       1.0000    0.32230   0.44993   0.10160   Biso      1.000     O          -0.687158           
         O18       1.0000    0.31350   0.49080   0.27330   Biso      1.000     O          -0.572546           
         O19       1.0000    0.35530   0.25522   0.04920   Biso      1.000     O          -0.684072           
         O20       1.0000    0.28720   0.27274   0.85920   Biso      1.000     O          -0.647743           
         O21       1.0000    0.64440   0.22301   0.11140   Biso      1.000     O          -0.62581  
         O22       1.0000    0.64550   0.29649   0.14660   Biso      1.000     O          -0.624904           
         O23       1.0000    0.61550   0.28236   0.87000   Biso      1.000     O          -0.65587  
         O24       1.0000    0.56270   0.35445   0.90370   Biso      1.000     O          -0.644556           
         O25       1.0000    0.29090   0.35843   0.01560   Biso      1.000     O          -0.621575           
         O26       1.0000    0.26260   0.39038   0.83470   Biso      1.000     O          -0.626531           
         O27       1.0000    0.70910   0.85843   0.48440   Biso      1.000     O          -0.621575           
         O28       1.0000    0.43730   0.85445   0.59630   Biso      1.000     O          -0.644555           
         O29       1.0000    0.38450   0.78236   0.63000   Biso      1.000     O          -0.655871           
         O30       1.0000    0.35450   0.79649   0.35340   Biso      1.000     O          -0.624903           
         O31       1.0000    0.71280   0.72726   0.14080   Biso      1.000     O          -0.647743           
         O32       1.0000    0.35560   0.77699   0.88860   Biso      1.000     O          -0.625806           
         O33       1.0000    0.35450   0.70351   0.85340   Biso      1.000     O          -0.624909           
         O34       1.0000    0.38450   0.71764   0.13000   Biso      1.000     O          -0.655865           
         O35       1.0000    0.43730   0.64555   0.09630   Biso      1.000     O          -0.644562           
         O36       1.0000    0.70910   0.64157   0.98440   Biso      1.000     O          -0.621574           
         O37       1.0000    0.73740   0.60962   0.16530   Biso      1.000     O          -0.626535           
         O38       1.0000    0.68650   0.50920   0.72670   Biso      1.000     O          -0.572551           
         O39       1.0000    0.31350   0.00920   0.77330   Biso      1.000     O          -0.572558           
         O40       1.0000    0.60690   0.99032   0.61610   Biso      1.000     O          -0.630946           
         O41       1.0000    0.65850   0.04595   0.48590   Biso      1.000     O          -0.633226           
         O42       1.0000    0.64550   0.20351   0.64660   Biso      1.000     O          -0.624909           
         O43       1.0000    0.68650   0.99080   0.22670   Biso      1.000     O          -0.572557           
         O44       1.0000    0.64470   0.75522   0.45080   Biso      1.000     O          -0.684073           
         O45       1.0000    0.71280   0.77274   0.64080   Biso      1.000     O          -0.647744           
         O46       1.0000    0.35560   0.72301   0.38860   Biso      1.000     O          -0.625814           
         O47       1.0000    0.32230   0.05007   0.60160   Biso      1.000     O          -0.687202           
         O48       1.0000    0.64440   0.27699   0.61140   Biso      1.000     O          -0.625806           
         Y1        1.0000    0.54043   0.75166   0.26331   Biso      1.000     Y          1.97689   
         Y2        1.0000    0.54552   0.58144   0.04159   Biso      1.000     Y          1.896116  
         Y3        1.0000    0.45448   0.08145   0.45841   Biso      1.000     Y          1.896241  
         Y4        1.0000    0.54552   0.91856   0.54159   Biso      1.000     Y          1.896114  
         Y5        1.0000    0.45957   0.25166   0.23669   Biso      1.000     Y          1.976891  
         Y6        1.0000    0.45448   0.41856   0.95841   Biso      1.000     Y          1.896112  
         Y7        1.0000    0.54043   0.74834   0.76331   Biso      1.000     Y          1.976888  
         Y8        1.0000    0.45957   0.24834   0.73669   Biso      1.000     Y          1.976891 