
##########################################################################
#               Crystallographic Information Format file
#               Produced by PyCifRW module
#
#  This is a CIF file.  CIF has been adopted by the International
#  Union of Crystallography as the standard for data archiving and
#  transmission.
#
#  For information on this file format, follow the CIF links at
#  http://www.iucr.org
##########################################################################

data_image0

_cell_length_a                          9.5386
_cell_length_b                          14.0679
_cell_length_c                          17.0679
_cell_angle_alpha                       90
_cell_angle_beta                        97.466
_cell_angle_gamma                       90
_symmetry_space_group_name_H-M          'P 1'
_symmetry_int_tables_number             1
loop_
  _symmetry_equiv_pos_as_xyz
         'x, y, z' 
loop_
  _atom_site_label
  _atom_site_occupancy
  _atom_site_fract_x
  _atom_site_fract_y
  _atom_site_fract_z
  _atom_site_thermal_displace_type
  _atom_site_B_iso_or_equiv
  _atom_site_type_symbol
  _atom_site_charge
         C1        1.0000    0.10090   0.12910   0.80070   Biso      1.000     C          0.629293  
         C2        1.0000    0.16310   0.28950   0.11120   Biso      1.000     C          -0.360601           
         C3        1.0000    0.93350   0.34160   0.97430   Biso      1.000     C          0.70196   
         C4        1.0000    0.09010   0.33890   0.96950   Biso      1.000     C          -0.366352           
         C5        1.0000    0.18040   0.36350   0.04840   Biso      1.000     C          -0.075347           
         C6        1.0000    0.33120   0.37080   0.03180   Biso      1.000     C          0.653436  
         C7        1.0000    0.39910   0.62910   0.69930   Biso      1.000     C          0.629293  
         C8        1.0000    0.28950   0.68210   0.86200   Biso      1.000     C          0.6767350000000001  
         C9        1.0000    0.22530   0.31440   0.19510   Biso      1.000     C          0.673651  
         C10       1.0000    0.22410   0.70660   0.77840   Biso      1.000     C          -0.359811           
         C11       1.0000    0.15640   0.65970   0.63720   Biso      1.000     C          -0.368675           
         C12       1.0000    0.99960   0.65380   0.64030   Biso      1.000     C          0.6985560000000001  
         C13       1.0000    0.27470   0.81440   0.30490   Biso      1.000     C          0.673651  
         C14       1.0000    0.33690   0.78950   0.38880   Biso      1.000     C          -0.360602           
         C15       1.0000    0.56650   0.84160   0.52570   Biso      1.000     C          0.70196   
         C16       1.0000    0.40990   0.83890   0.53050   Biso      1.000     C          -0.36635100000000004          
         C17       1.0000    0.31960   0.86350   0.45160   Biso      1.000     C          -0.075347           
         C18       1.0000    0.24760   0.63340   0.71500   Biso      1.000     C          -0.06442  
         C19       1.0000    0.50040   0.15380   0.85970   Biso      1.000     C          0.698557  
         C20       1.0000    0.34360   0.15970   0.86280   Biso      1.000     C          -0.368675           
         C21       1.0000    0.25240   0.13340   0.78500   Biso      1.000     C          -0.06442  
         C22       1.0000    0.81960   0.63650   0.95160   Biso      1.000     C          -0.075347           
         C23       1.0000    0.66880   0.62920   0.96820   Biso      1.000     C          0.653436  
         C24       1.0000    0.60090   0.37090   0.30070   Biso      1.000     C          0.629293  
         C25       1.0000    0.71050   0.31790   0.13800   Biso      1.000     C          0.6767350000000001  
         C26       1.0000    0.77590   0.29340   0.22160   Biso      1.000     C          -0.35981199999999997          
         C27       1.0000    0.75240   0.36660   0.28500   Biso      1.000     C          -0.06442  
         C28       1.0000    0.84360   0.34030   0.36280   Biso      1.000     C          -0.368675           
         C29       1.0000    0.00040   0.34620   0.35970   Biso      1.000     C          0.6985560000000001  
         C30       1.0000    0.72530   0.18560   0.69510   Biso      1.000     C          0.673651  
         C31       1.0000    0.66310   0.21050   0.61120   Biso      1.000     C          -0.360603           
         C32       1.0000    0.43350   0.15840   0.47430   Biso      1.000     C          0.70196   
         C33       1.0000    0.59010   0.16110   0.46950   Biso      1.000     C          -0.36635100000000004          
         C34       1.0000    0.68040   0.13650   0.54840   Biso      1.000     C          -0.075347           
         C35       1.0000    0.83120   0.12920   0.53180   Biso      1.000     C          0.653436  
         C36       1.0000    0.83690   0.71050   0.88880   Biso      1.000     C          -0.360602           
         C37       1.0000    0.21050   0.18210   0.63800   Biso      1.000     C          0.6767350000000001  
         C38       1.0000    0.27590   0.20660   0.72160   Biso      1.000     C          -0.359811           
         C39       1.0000    0.16880   0.87080   0.46820   Biso      1.000     C          0.653436  
         C40       1.0000    0.90990   0.66110   0.03050   Biso      1.000     C          -0.36635100000000004          
         C41       1.0000    0.06650   0.65840   0.02570   Biso      1.000     C          0.701959  
         C42       1.0000    0.89910   0.87090   0.19930   Biso      1.000     C          0.629293  
         C43       1.0000    0.78950   0.81790   0.36200   Biso      1.000     C          0.6767350000000001  
         C44       1.0000    0.72410   0.79340   0.27840   Biso      1.000     C          -0.359811           
         C45       1.0000    0.74760   0.86660   0.21500   Biso      1.000     C          -0.06442  
         C46       1.0000    0.65640   0.84030   0.13720   Biso      1.000     C          -0.368675           
         C47       1.0000    0.49960   0.84620   0.14030   Biso      1.000     C          0.6985560000000001  
         C48       1.0000    0.77470   0.68560   0.80490   Biso      1.000     C          0.673651  
         H1        1.0000    0.79370   0.76920   0.90340   Biso      1.000     H          0.14121   
         H2        1.0000    0.11170   0.38350   0.92940   Biso      1.000     H          0.174789  
         H3        1.0000    0.11550   0.27580   0.95310   Biso      1.000     H          0.129333  
         H4        1.0000    0.15050   0.42540   0.06660   Biso      1.000     H          0.10045499999999999           
         H5        1.0000    0.26220   0.76710   0.76400   Biso      1.000     H          0.15094200000000002           
         H6        1.0000    0.12310   0.71480   0.77830   Biso      1.000     H          0.145826  
         H7        1.0000    0.21910   0.57060   0.73210   Biso      1.000     H          0.10991300000000001           
         H8        1.0000    0.29370   0.73080   0.40340   Biso      1.000     H          0.14121   
         H9        1.0000    0.18040   0.61750   0.59600   Biso      1.000     H          0.152301  
         H10       1.0000    0.43710   0.77740   0.38930   Biso      1.000     H          0.148649  
         H11       1.0000    0.20630   0.23080   0.09660   Biso      1.000     H          0.14121   
         H12       1.0000    0.38830   0.88350   0.57060   Biso      1.000     H          0.174789  
         H13       1.0000    0.38450   0.77580   0.54690   Biso      1.000     H          0.129333  
         H14       1.0000    0.34950   0.92540   0.43340   Biso      1.000     H          0.10045499999999999           
         H15       1.0000    0.17970   0.72390   0.62280   Biso      1.000     H          0.135731  
         H16       1.0000    0.88830   0.61650   0.07060   Biso      1.000     H          0.174789  
         H17       1.0000    0.06290   0.27740   0.11070   Biso      1.000     H          0.148648  
         H18       1.0000    0.32030   0.22390   0.87720   Biso      1.000     H          0.135731  
         H19       1.0000    0.93710   0.72260   0.88930   Biso      1.000     H          0.148648  
         H20       1.0000    0.88450   0.72420   0.04690   Biso      1.000     H          0.129333  
         H21       1.0000    0.67970   0.77610   0.12280   Biso      1.000     H          0.135731  
         H22       1.0000    0.71910   0.92940   0.23210   Biso      1.000     H          0.10991300000000001           
         H23       1.0000    0.62310   0.78520   0.27830   Biso      1.000     H          0.145825  
         H24       1.0000    0.76220   0.73290   0.26400   Biso      1.000     H          0.15094200000000002           
         H25       1.0000    0.84950   0.57460   0.93340   Biso      1.000     H          0.10045499999999999           
         H26       1.0000    0.73780   0.23290   0.23600   Biso      1.000     H          0.15094200000000002           
         H27       1.0000    0.87690   0.28520   0.22170   Biso      1.000     H          0.145825  
         H28       1.0000    0.31960   0.11750   0.90400   Biso      1.000     H          0.152301  
         H29       1.0000    0.78090   0.42940   0.26790   Biso      1.000     H          0.10991300000000001           
         H30       1.0000    0.81960   0.38250   0.40400   Biso      1.000     H          0.152301  
         H31       1.0000    0.56290   0.22260   0.61070   Biso      1.000     H          0.148649  
         H32       1.0000    0.70630   0.26920   0.59660   Biso      1.000     H          0.14121   
         H33       1.0000    0.61170   0.11650   0.42940   Biso      1.000     H          0.174789  
         H34       1.0000    0.61550   0.22420   0.45310   Biso      1.000     H          0.129333  
         H35       1.0000    0.65050   0.07460   0.56660   Biso      1.000     H          0.10045499999999999           
         H36       1.0000    0.23780   0.26710   0.73600   Biso      1.000     H          0.15094200000000002           
         H37       1.0000    0.37690   0.21480   0.72170   Biso      1.000     H          0.145825  
         H38       1.0000    0.28090   0.07060   0.76790   Biso      1.000     H          0.10991300000000001           
         H39       1.0000    0.82030   0.27610   0.37720   Biso      1.000     H          0.135731  
         H40       1.0000    0.68040   0.88250   0.09600   Biso      1.000     H          0.152301  
         La1       1.0000    0.88273   0.87041   0.52856   Biso      1.000     La          1.9271009999999997  
         La2       1.0000    0.18230   0.87108   0.14040   Biso      1.000     La          1.866534  
         La3       1.0000    0.38273   0.62959   0.02856   Biso      1.000     La          1.9271009999999997  
         La4       1.0000    0.31770   0.37108   0.35960   Biso      1.000     La          1.8665349999999998  
         La5       1.0000    0.11727   0.12959   0.47144   Biso      1.000     La          1.9271009999999997  
         La6       1.0000    0.81770   0.12892   0.85960   Biso      1.000     La          1.866534  
         La7       1.0000    0.61727   0.37041   0.97144   Biso      1.000     La          1.9271009999999997  
         La8       1.0000    0.68230   0.62892   0.64040   Biso      1.000     La          1.866534  
         O1        1.0000    0.71650   0.25580   0.08540   Biso      1.000     O          -0.653316           
         O2        1.0000    0.05000   0.40910   0.32040   Biso      1.000     O          -0.580436           
         O3        1.0000    0.08070   0.28470   0.39850   Biso      1.000     O          -0.717342           
         O4        1.0000    0.72110   0.24700   0.74780   Biso      1.000     O          -0.611696           
         O5        1.0000    0.35270   0.21920   0.43640   Biso      1.000     O          -0.711171           
         O6        1.0000    0.38160   0.09290   0.51110   Biso      1.000     O          -0.563142           
         O7        1.0000    0.65580   0.39780   0.12210   Biso      1.000     O          -0.615397           
         O8        1.0000    0.90180   0.20280   0.52390   Biso      1.000     O          -0.580412           
         O9        1.0000    0.77660   0.10310   0.71060   Biso      1.000     O          -0.6121260000000001           
         O10       1.0000    0.54880   0.44940   0.31670   Biso      1.000     O          -0.663338           
         O11       1.0000    0.14730   0.71920   0.06360   Biso      1.000     O          -0.711171           
         O12       1.0000    0.61590   0.54790   0.97910   Biso      1.000     O          -0.708295           
         O13       1.0000    0.59820   0.70280   0.97610   Biso      1.000     O          -0.580412           
         O14       1.0000    0.88410   0.04790   0.52090   Biso      1.000     O          -0.708295           
         O15       1.0000    0.11840   0.59290   0.98890   Biso      1.000     O          -0.563142           
         O16       1.0000    0.72340   0.60310   0.78940   Biso      1.000     O          -0.6121260000000001           
         O17       1.0000    0.77890   0.74700   0.75220   Biso      1.000     O          -0.611696           
         O18       1.0000    0.41930   0.78470   0.10150   Biso      1.000     O          -0.717342           
         O19       1.0000    0.45000   0.90910   0.17960   Biso      1.000     O          -0.580436           
         O20       1.0000    0.78350   0.75580   0.41460   Biso      1.000     O          -0.653316           
         O21       1.0000    0.84420   0.89780   0.37790   Biso      1.000     O          -0.615397           
         O22       1.0000    0.52960   0.29520   0.30330   Biso      1.000     O          -0.604536           
         O23       1.0000    0.02960   0.20480   0.80330   Biso      1.000     O          -0.604536           
         O24       1.0000    0.21650   0.24420   0.58540   Biso      1.000     O          -0.653316           
         O25       1.0000    0.15580   0.10220   0.62210   Biso      1.000     O          -0.615397           
         O26       1.0000    0.11590   0.95210   0.47910   Biso      1.000     O          -0.708295           
         O27       1.0000    0.09820   0.79720   0.47610   Biso      1.000     O          -0.580412           
         O28       1.0000    0.64730   0.78080   0.56360   Biso      1.000     O          -0.711171           
         O29       1.0000    0.61840   0.90710   0.48890   Biso      1.000     O          -0.563142           
         O30       1.0000    0.22340   0.89690   0.28940   Biso      1.000     O          -0.6121260000000001           
         O31       1.0000    0.27890   0.75300   0.25220   Biso      1.000     O          -0.611696           
         O32       1.0000    0.91930   0.71530   0.60150   Biso      1.000     O          -0.717342           
         O33       1.0000    0.95000   0.59090   0.67960   Biso      1.000     O          -0.580436           
         O34       1.0000    0.28350   0.74420   0.91460   Biso      1.000     O          -0.653316           
         O35       1.0000    0.34420   0.60220   0.87790   Biso      1.000     O          -0.615396           
         O36       1.0000    0.45120   0.55060   0.68330   Biso      1.000     O          -0.663338           
         O37       1.0000    0.47040   0.70480   0.69670   Biso      1.000     O          -0.604536           
         O38       1.0000    0.38410   0.45210   0.02090   Biso      1.000     O          -0.708295           
         O39       1.0000    0.40180   0.29720   0.02390   Biso      1.000     O          -0.580412           
         O40       1.0000    0.85270   0.28080   0.93640   Biso      1.000     O          -0.711171           
         O41       1.0000    0.88160   0.40710   0.01110   Biso      1.000     O          -0.563142           
         O42       1.0000    0.27660   0.39690   0.21060   Biso      1.000     O          -0.6121260000000001           
         O43       1.0000    0.22110   0.25300   0.24780   Biso      1.000     O          -0.611696           
         O44       1.0000    0.58070   0.21530   0.89850   Biso      1.000     O          -0.717342           
         O45       1.0000    0.55000   0.09090   0.82040   Biso      1.000     O          -0.580436           
         O46       1.0000    0.95120   0.94940   0.18330   Biso      1.000     O          -0.663338           
         O47       1.0000    0.04880   0.05060   0.81670   Biso      1.000     O          -0.663338           
         O48       1.0000    0.97040   0.79520   0.19670   Biso      1.000     O          -0.604536 