
##########################################################################
#               Crystallographic Information Format file
#               Produced by PyCifRW module
#
#  This is a CIF file.  CIF has been adopted by the International
#  Union of Crystallography as the standard for data archiving and
#  transmission.
#
#  For information on this file format, follow the CIF links at
#  http://www.iucr.org
##########################################################################

data_image0

_cell_length_a                          9.91
_cell_length_b                          10.745
_cell_length_c                          11.079
_cell_angle_alpha                       63.177
_cell_angle_beta                        65.556
_cell_angle_gamma                       66.664
_symmetry_space_group_name_H-M          'P 1'
_symmetry_int_tables_number             1
loop_
  _symmetry_equiv_pos_as_xyz
         'x, y, z' 
loop_
  _atom_site_label
  _atom_site_occupancy
  _atom_site_fract_x
  _atom_site_fract_y
  _atom_site_fract_z
  _atom_site_thermal_displace_type
  _atom_site_B_iso_or_equiv
  _atom_site_type_symbol
  _atom_site_charge
         C1        1.0000    0.62140   0.56310   0.93470   Biso      1.000     C          -0.09939400000000001          
         C2        1.0000    0.81120   0.61570   0.39880   Biso      1.000     C          -0.116737           
         C3        1.0000    0.05540   0.76980   0.59610   Biso      1.000     C          0.6713100000000001  
         C4        1.0000    0.48630   0.76450   0.75760   Biso      1.000     C          0.640113  
         C5        1.0000    0.49420   0.62620   0.88220   Biso      1.000     C          -0.029785000000000002         
         C6        1.0000    0.37860   0.43690   0.06530   Biso      1.000     C          -0.09939400000000001          
         C7        1.0000    0.37430   0.56010   0.94930   Biso      1.000     C          -0.10826400000000001          
         C8        1.0000    0.90340   0.47810   0.40150   Biso      1.000     C          -0.101173           
         C9        1.0000    0.44100   0.19800   0.60890   Biso      1.000     C          0.619334  
         C10       1.0000    0.37710   0.42830   0.64840   Biso      1.000     C          -0.092054           
         C11       1.0000    0.28650   0.56670   0.64370   Biso      1.000     C          -0.095453           
         C12       1.0000    0.14610   0.61540   0.61660   Biso      1.000     C          -0.032885000000000005         
         C13       1.0000    0.09660   0.52190   0.59850   Biso      1.000     C          -0.101173           
         C14       1.0000    0.18880   0.38430   0.60120   Biso      1.000     C          -0.116737           
         C15       1.0000    0.94460   0.23020   0.40390   Biso      1.000     C          0.671308  
         C16       1.0000    0.33090   0.33990   0.62250   Biso      1.000     C          -0.021771000000000002         
         C17       1.0000    0.85390   0.38460   0.38340   Biso      1.000     C          -0.032885000000000005         
         C18       1.0000    0.71350   0.43330   0.35630   Biso      1.000     C          -0.095453           
         C19       1.0000    0.62290   0.57170   0.35160   Biso      1.000     C          -0.092054           
         C20       1.0000    0.62570   0.43990   0.05070   Biso      1.000     C          -0.10826300000000001          
         C21       1.0000    0.51370   0.23550   0.24240   Biso      1.000     C          0.640113  
         C22       1.0000    0.50580   0.37380   0.11780   Biso      1.000     C          -0.029786           
         C23       1.0000    0.55900   0.80200   0.39110   Biso      1.000     C          0.619333  
         C24       1.0000    0.66910   0.66010   0.37750   Biso      1.000     C          -0.021771000000000002         
         H1        1.0000    0.29490   0.39400   0.11050   Biso      1.000     H          0.121723  
         H2        1.0000    0.15430   0.32140   0.58850   Biso      1.000     H          0.099523  
         H3        1.0000    0.99870   0.55260   0.58410   Biso      1.000     H          0.11048399999999998           
         H4        1.0000    0.32070   0.62800   0.65900   Biso      1.000     H          0.11153699999999998           
         H5        1.0000    0.28790   0.60110   0.91410   Biso      1.000     H          0.117755  
         H6        1.0000    0.70510   0.60600   0.88950   Biso      1.000     H          0.121723  
         H7        1.0000    0.84570   0.67860   0.41150   Biso      1.000     H          0.099523  
         H8        1.0000    0.00130   0.44740   0.41590   Biso      1.000     H          0.11048399999999998           
         H9        1.0000    0.67930   0.37200   0.34100   Biso      1.000     H          0.11153699999999998           
         H10       1.0000    0.52830   0.60560   0.33040   Biso      1.000     H          0.122704  
         H11       1.0000    0.71210   0.39890   0.08590   Biso      1.000     H          0.117755  
         H12       1.0000    0.47170   0.39440   0.66960   Biso      1.000     H          0.122704  
         La1       1.0000    0.28281   0.00947   0.51030   Biso      1.000     La          1.956906  
         La2       1.0000    0.71719   0.99053   0.48970   Biso      1.000     La          1.956906  
         O1        1.0000    0.43090   0.83830   0.37240   Biso      1.000     O          -0.571753           
         O2        1.0000    0.59700   0.87690   0.42690   Biso      1.000     O          -0.709179           
         O3        1.0000    0.92260   0.80510   0.58400   Biso      1.000     O          -0.6656310000000001           
         O4        1.0000    0.11360   0.85420   0.59330   Biso      1.000     O          -0.6463869999999999           
         O5        1.0000    0.37480   0.80870   0.70880   Biso      1.000     O          -0.653307           
         O6        1.0000    0.59190   0.82480   0.71100   Biso      1.000     O          -0.627616           
         O7        1.0000    0.56910   0.16170   0.62760   Biso      1.000     O          -0.571753           
         O8        1.0000    0.40300   0.12310   0.57310   Biso      1.000     O          -0.709179           
         O9        1.0000    0.07740   0.19490   0.41600   Biso      1.000     O          -0.66563  
         O10       1.0000    0.88640   0.14580   0.40670   Biso      1.000     O          -0.6463869999999999           
         O11       1.0000    0.62520   0.19130   0.29120   Biso      1.000     O          -0.653307           
         O12       1.0000    0.40810   0.17520   0.28900   Biso      1.000     O          -0.6276149999999999 