
##########################################################################
#               Crystallographic Information Format file
#               Produced by PyCifRW module
#
#  This is a CIF file.  CIF has been adopted by the International
#  Union of Crystallography as the standard for data archiving and
#  transmission.
#
#  For information on this file format, follow the CIF links at
#  http://www.iucr.org
##########################################################################

data_image0

_cell_length_a                          9.8555
_cell_length_b                          10.705
_cell_length_c                          11.106
_cell_angle_alpha                       62.947
_cell_angle_beta                        65.653
_cell_angle_gamma                       66.647
_symmetry_space_group_name_H-M          'P 1'
_symmetry_int_tables_number             1
loop_
  _symmetry_equiv_pos_as_xyz
         'x, y, z' 
loop_
  _atom_site_label
  _atom_site_occupancy
  _atom_site_fract_x
  _atom_site_fract_y
  _atom_site_fract_z
  _atom_site_thermal_displace_type
  _atom_site_B_iso_or_equiv
  _atom_site_type_symbol
  _atom_site_charge
         C1        1.0000    0.05960   0.30230   0.39180   Biso      1.000     C          0.634889  
         C2        1.0000    0.12150   0.06520   0.93360   Biso      1.000     C          -0.10251600000000001          
         C3        1.0000    0.87290   0.06100   0.94960   Biso      1.000     C          -0.106734           
         C4        1.0000    0.99310   0.12630   0.88220   Biso      1.000     C          -0.028329000000000003         
         C5        1.0000    0.16800   0.16190   0.37760   Biso      1.000     C          -0.022878           
         C6        1.0000    0.35390   0.88400   0.38460   Biso      1.000     C          -0.022827           
         C7        1.0000    0.21320   0.93380   0.35670   Biso      1.000     C          -0.099349           
         C8        1.0000    0.12100   0.07270   0.35250   Biso      1.000     C          -0.08787400000000001          
         C9        1.0000    0.98590   0.26460   0.75640   Biso      1.000     C          0.65512   
         C10       1.0000    0.55470   0.27090   0.59530   Biso      1.000     C          0.6834720000000001  
         C11       1.0000    0.01410   0.73540   0.24360   Biso      1.000     C          0.65512   
         C12       1.0000    0.87900   0.92730   0.64750   Biso      1.000     C          -0.087876           
         C13       1.0000    0.78680   0.06620   0.64330   Biso      1.000     C          -0.09935  
         C14       1.0000    0.64610   0.11600   0.61540   Biso      1.000     C          -0.022826           
         C15       1.0000    0.83200   0.83810   0.62240   Biso      1.000     C          -0.022876           
         C16       1.0000    0.00690   0.87370   0.11780   Biso      1.000     C          -0.028331           
         C17       1.0000    0.12710   0.93900   0.05040   Biso      1.000     C          -0.106732           
         C18       1.0000    0.87850   0.93480   0.06640   Biso      1.000     C          -0.10251500000000001          
         C19       1.0000    0.68640   0.88380   0.60410   Biso      1.000     C          -0.11361500000000001          
         C20       1.0000    0.59470   0.02300   0.59970   Biso      1.000     C          -0.106129           
         C21       1.0000    0.94040   0.69770   0.60820   Biso      1.000     C          0.634889  
         C22       1.0000    0.44530   0.72910   0.40470   Biso      1.000     C          0.6834720000000001  
         C23       1.0000    0.31360   0.11620   0.39590   Biso      1.000     C          -0.11361500000000001          
         C24       1.0000    0.40530   0.97700   0.40030   Biso      1.000     C          -0.106129           
         Ce1       1.0000    0.78301   0.50930   0.51034   Biso      1.000     Ce          2.11364   
         Ce2       1.0000    0.21699   0.49070   0.48966   Biso      1.000     Ce          2.11364   
         H1        1.0000    0.02530   0.10630   0.33220   Biso      1.000     H          0.12378800000000001           
         H2        1.0000    0.17930   0.87270   0.34040   Biso      1.000     H          0.113023  
         H3        1.0000    0.78510   0.10320   0.91540   Biso      1.000     H          0.117569  
         H4        1.0000    0.20430   0.10990   0.88860   Biso      1.000     H          0.123606  
         H5        1.0000    0.35060   0.17990   0.40550   Biso      1.000     H          0.096355  
         H6        1.0000    0.49590   0.05420   0.58590   Biso      1.000     H          0.112044  
         H7        1.0000    0.97470   0.89370   0.66780   Biso      1.000     H          0.12378800000000001           
         H8        1.0000    0.82070   0.12730   0.65960   Biso      1.000     H          0.113023  
         H9        1.0000    0.21490   0.89680   0.08460   Biso      1.000     H          0.117569  
         H10       1.0000    0.79570   0.89010   0.11140   Biso      1.000     H          0.12360499999999999           
         H11       1.0000    0.64940   0.82010   0.59450   Biso      1.000     H          0.096355  
         H12       1.0000    0.50410   0.94580   0.41410   Biso      1.000     H          0.112044  
         O1        1.0000    0.90330   0.62290   0.57090   Biso      1.000     O          -0.760374           
         O2        1.0000    0.07040   0.65990   0.62650   Biso      1.000     O          -0.5990840000000001           
         O3        1.0000    0.38660   0.64350   0.40670   Biso      1.000     O          -0.692501           
         O4        1.0000    0.57820   0.69400   0.41430   Biso      1.000     O          -0.688284           
         O5        1.0000    0.09250   0.32520   0.70930   Biso      1.000     O          -0.662013           
         O6        1.0000    0.92960   0.34010   0.37350   Biso      1.000     O          -0.5990840000000001           
         O7        1.0000    0.09670   0.37710   0.42910   Biso      1.000     O          -0.760374           
         O8        1.0000    0.61340   0.35650   0.59330   Biso      1.000     O          -0.692501           
         O9        1.0000    0.42180   0.30600   0.58570   Biso      1.000     O          -0.688284           
         O10       1.0000    0.12470   0.69190   0.29290   Biso      1.000     O          -0.680996           
         O11       1.0000    0.87530   0.30810   0.70710   Biso      1.000     O          -0.680996           
         O12       1.0000    0.90750   0.67480   0.29070   Biso      1.000     O          -0.662013 