
##########################################################################
#               Crystallographic Information Format file
#               Produced by PyCifRW module
#
#  This is a CIF file.  CIF has been adopted by the International
#  Union of Crystallography as the standard for data archiving and
#  transmission.
#
#  For information on this file format, follow the CIF links at
#  http://www.iucr.org
##########################################################################

data_image0

_cell_length_a                          9.761
_cell_length_b                          10.645
_cell_length_c                          10.956
_cell_angle_alpha                       63.331
_cell_angle_beta                        65.969
_cell_angle_gamma                       67.128
_symmetry_space_group_name_H-M          'P 1'
_symmetry_int_tables_number             1
loop_
  _symmetry_equiv_pos_as_xyz
         'x, y, z' 
loop_
  _atom_site_label
  _atom_site_occupancy
  _atom_site_fract_x
  _atom_site_fract_y
  _atom_site_fract_z
  _atom_site_thermal_displace_type
  _atom_site_B_iso_or_equiv
  _atom_site_type_symbol
  _atom_site_charge
         C1        1.0000    0.08560   0.52000   0.60830   Biso      1.000     C          -0.102848           
         C2        1.0000    0.62160   0.57020   0.35280   Biso      1.000     C          -0.089864           
         C3        1.0000    0.71460   0.43100   0.35720   Biso      1.000     C          -0.095031           
         C4        1.0000    0.37270   0.55880   0.94730   Biso      1.000     C          -0.107303           
         C5        1.0000    0.62730   0.44120   0.05270   Biso      1.000     C          -0.107303           
         C6        1.0000    0.38020   0.43140   0.06380   Biso      1.000     C          -0.100959           
         C7        1.0000    0.50820   0.37180   0.11630   Biso      1.000     C          -0.023967           
         C8        1.0000    0.51620   0.23170   0.24230   Biso      1.000     C          0.65275   
         C9        1.0000    0.04930   0.77150   0.59910   Biso      1.000     C          0.691067  
         C10       1.0000    0.85890   0.38380   0.37990   Biso      1.000     C          -0.028772           
         C11       1.0000    0.18000   0.38150   0.60980   Biso      1.000     C          -0.113563           
         C12       1.0000    0.91440   0.48000   0.39170   Biso      1.000     C          -0.102849           
         C13       1.0000    0.67280   0.66120   0.37510   Biso      1.000     C          -0.022282           
         C14       1.0000    0.56120   0.80060   0.39260   Biso      1.000     C          0.638963  
         C15       1.0000    0.28540   0.56900   0.64280   Biso      1.000     C          -0.095031           
         C16       1.0000    0.82000   0.61850   0.39020   Biso      1.000     C          -0.113563           
         C17       1.0000    0.37840   0.42980   0.64720   Biso      1.000     C          -0.089865           
         C18       1.0000    0.32720   0.33880   0.62490   Biso      1.000     C          -0.022282           
         C19       1.0000    0.43880   0.19940   0.60740   Biso      1.000     C          0.638962  
         C20       1.0000    0.95070   0.22850   0.40090   Biso      1.000     C          0.691067  
         C21       1.0000    0.48380   0.76830   0.75770   Biso      1.000     C          0.65275   
         C22       1.0000    0.49180   0.62820   0.88370   Biso      1.000     C          -0.023966           
         C23       1.0000    0.61980   0.56860   0.93620   Biso      1.000     C          -0.100959           
         C24       1.0000    0.14110   0.61620   0.62010   Biso      1.000     C          -0.028773           
         H1        1.0000    0.01600   0.45120   0.40060   Biso      1.000     H          0.11571   
         H2        1.0000    0.85690   0.68320   0.39970   Biso      1.000     H          0.099244  
         H3        1.0000    0.67870   0.36780   0.34440   Biso      1.000     H          0.111911  
         H4        1.0000    0.52400   0.60260   0.33460   Biso      1.000     H          0.125406  
         H5        1.0000    0.70200   0.61520   0.89210   Biso      1.000     H          0.124085  
         H6        1.0000    0.71420   0.40130   0.08920   Biso      1.000     H          0.119867  
         H7        1.0000    0.28580   0.59870   0.91080   Biso      1.000     H          0.119868  
         H8        1.0000    0.32130   0.63220   0.65560   Biso      1.000     H          0.111911  
         H9        1.0000    0.47600   0.39740   0.66540   Biso      1.000     H          0.125406  
         H10       1.0000    0.98400   0.54880   0.59940   Biso      1.000     H          0.11571   
         H11       1.0000    0.14310   0.31680   0.60030   Biso      1.000     H          0.099244  
         H12       1.0000    0.29800   0.38480   0.10790   Biso      1.000     H          0.124085  
         Nd1       1.0000    0.71421   0.99232   0.49249   Biso      1.000     Nd          2.145841  
         Nd2       1.0000    0.28579   0.00768   0.50751   Biso      1.000     Nd          2.145842  
         O1        1.0000    0.42990   0.83760   0.37430   Biso      1.000     O          -0.601371           
         O2        1.0000    0.59770   0.87540   0.43280   Biso      1.000     O          -0.780914           
         O3        1.0000    0.08510   0.19430   0.41130   Biso      1.000     O          -0.702053           
         O4        1.0000    0.37160   0.81190   0.70650   Biso      1.000     O          -0.695034           
         O5        1.0000    0.88710   0.14160   0.40960   Biso      1.000     O          -0.701946           
         O6        1.0000    0.41310   0.16660   0.28550   Biso      1.000     O          -0.658939           
         O7        1.0000    0.62840   0.18810   0.29350   Biso      1.000     O          -0.695034           
         O8        1.0000    0.11290   0.85840   0.59040   Biso      1.000     O          -0.701946           
         O9        1.0000    0.91490   0.80570   0.58870   Biso      1.000     O          -0.702053           
         O10       1.0000    0.40230   0.12460   0.56720   Biso      1.000     O          -0.780914           
         O11       1.0000    0.57010   0.16240   0.62570   Biso      1.000     O          -0.601371           
         O12       1.0000    0.58690   0.83340   0.71450   Biso      1.000     O          -0.658939 