
##########################################################################
#               Crystallographic Information Format file
#               Produced by PyCifRW module
#
#  This is a CIF file.  CIF has been adopted by the International
#  Union of Crystallography as the standard for data archiving and
#  transmission.
#
#  For information on this file format, follow the CIF links at
#  http://www.iucr.org
##########################################################################

data_image0

_cell_length_a                          14.3319
_cell_length_b                          14.3319
_cell_length_c                          14.3319
_cell_angle_alpha                       108.954
_cell_angle_beta                        108.954
_cell_angle_gamma                       110.51
_symmetry_space_group_name_H-M          'P 1'
_symmetry_int_tables_number             1
loop_
  _symmetry_equiv_pos_as_xyz
         'x, y, z' 
loop_
  _atom_site_label
  _atom_site_occupancy
  _atom_site_fract_x
  _atom_site_fract_y
  _atom_site_fract_z
  _atom_site_thermal_displace_type
  _atom_site_B_iso_or_equiv
  _atom_site_type_symbol
  _atom_site_charge
         C1        1.0000    0.75090   0.29870   0.35040   Biso      1.000     C          0.17416199999999998           
         C2        1.0000    0.29300   0.93990   0.40990   Biso      1.000     C          -0.121705           
         C3        1.0000    0.66570   0.22670   0.36380   Biso      1.000     C          -0.180383           
         C4        1.0000    0.63720   0.97650   0.60150   Biso      1.000     C          -0.10841300000000001          
         C5        1.0000    0.20880   0.93910   0.08730   Biso      1.000     C          -0.088431           
         C6        1.0000    0.16810   0.36430   0.94320   Biso      1.000     C          0.5761109999999999  
         C7        1.0000    0.83190   0.63570   0.05680   Biso      1.000     C          0.576159  
         C8        1.0000    0.86430   0.42110   0.19620   Biso      1.000     C          0.575863  
         C9        1.0000    0.47650   0.37500   0.33930   Biso      1.000     C          -0.108385           
         C10       1.0000    0.62150   0.70880   0.76970   Biso      1.000     C          -0.08846699999999999          
         C11       1.0000    0.92110   0.22490   0.55680   Biso      1.000     C          0.576129  
         C12       1.0000    0.13570   0.57890   0.80380   Biso      1.000     C          0.575873  
         C13       1.0000    0.27310   0.70970   0.75680   Biso      1.000     C          -0.0016129999999999999        
         C14       1.0000    0.46430   0.86280   0.83930   Biso      1.000     C          -0.108332           
         C15       1.0000    0.36290   0.30190   0.13620   Biso      1.000     C          -0.180377           
         C16       1.0000    0.54710   0.48370   0.25680   Biso      1.000     C          -0.001607           
         C17       1.0000    0.37850   0.29120   0.23030   Biso      1.000     C          -0.088448           
         C18       1.0000    0.38790   0.43640   0.76470   Biso      1.000     C          -0.01733  
         C19       1.0000    0.72690   0.29030   0.24320   Biso      1.000     C          -0.0016129999999999999        
         C20       1.0000    0.03000   0.88310   0.09010   Biso      1.000     C          -0.121705           
         C21       1.0000    0.06360   0.32830   0.95150   Biso      1.000     C          -0.017450999999999998         
         C22       1.0000    0.01630   0.77310   0.06340   Biso      1.000     C          -0.0015630000000000002        
         C23       1.0000    0.61210   0.56360   0.23530   Biso      1.000     C          -0.017345           
         C24       1.0000    0.56090   0.14820   0.26970   Biso      1.000     C          -0.088489           
         C25       1.0000    0.93640   0.67170   0.04850   Biso      1.000     C          -0.017401           
         C26       1.0000    0.87500   0.03570   0.89850   Biso      1.000     C          -0.108471           
         C27       1.0000    0.45290   0.51630   0.74320   Biso      1.000     C          -0.001623           
         C28       1.0000    0.72670   0.86290   0.56100   Biso      1.000     C          -0.18043900000000002          
         C29       1.0000    0.55170   0.59950   0.85040   Biso      1.000     C          0.17416500000000001           
         C30       1.0000    0.09950   0.74910   0.04780   Biso      1.000     C          0.174205  
         C31       1.0000    0.43990   0.53000   0.64690   Biso      1.000     C          -0.121689           
         C32       1.0000    0.27510   0.33190   0.69620   Biso      1.000     C          0.5759920000000001  
         C33       1.0000    0.79870   0.94830   0.54780   Biso      1.000     C          0.174207  
         C34       1.0000    0.12320   0.88790   0.45150   Biso      1.000     C          -0.017388           
         C35       1.0000    0.43910   0.85180   0.73030   Biso      1.000     C          -0.08848500000000001          
         C36       1.0000    0.90050   0.25090   0.95220   Biso      1.000     C          0.174199  
         C37       1.0000    0.97000   0.11690   0.90990   Biso      1.000     C          -0.12171099999999999          
         C38       1.0000    0.38310   0.79300   0.85310   Biso      1.000     C          -0.121781           
         C39       1.0000    0.70700   0.06010   0.59010   Biso      1.000     C          -0.121688           
         C40       1.0000    0.44830   0.40050   0.14960   Biso      1.000     C          0.174171  
         C41       1.0000    0.17170   0.62320   0.73530   Biso      1.000     C          -0.017332           
         C42       1.0000    0.20130   0.05170   0.45220   Biso      1.000     C          0.174198  
         C43       1.0000    0.61690   0.20700   0.14690   Biso      1.000     C          -0.12176700000000001          
         C44       1.0000    0.87680   0.11210   0.54850   Biso      1.000     C          -0.017383000000000003         
         C45       1.0000    0.79030   0.04710   0.56340   Biso      1.000     C          -0.001536           
         C46       1.0000    0.80190   0.16570   0.93900   Biso      1.000     C          -0.18040899999999999          
         C47       1.0000    0.56010   0.47000   0.35310   Biso      1.000     C          -0.12169  
         C48       1.0000    0.24910   0.70130   0.64960   Biso      1.000     C          0.174173  
         C49       1.0000    0.82830   0.37680   0.26470   Biso      1.000     C          -0.017297999999999997         
         C50       1.0000    0.53570   0.13720   0.16070   Biso      1.000     C          -0.10835999999999998          
         C51       1.0000    0.72490   0.66810   0.30380   Biso      1.000     C          0.57603   
         C52       1.0000    0.20970   0.95290   0.43660   Biso      1.000     C          -0.001533           
         C53       1.0000    0.64820   0.87850   0.58730   Biso      1.000     C          -0.088421           
         C54       1.0000    0.63710   0.69810   0.86380   Biso      1.000     C          -0.180387           
         C55       1.0000    0.36280   0.02350   0.39850   Biso      1.000     C          -0.10840899999999999          
         C56       1.0000    0.19810   0.83430   0.06100   Biso      1.000     C          -0.180447           
         C57       1.0000    0.27330   0.13710   0.43900   Biso      1.000     C          -0.180425           
         C58       1.0000    0.07890   0.77510   0.44320   Biso      1.000     C          0.576129  
         C59       1.0000    0.33430   0.77330   0.63620   Biso      1.000     C          -0.180351           
         C60       1.0000    0.98370   0.22690   0.93660   Biso      1.000     C          -0.0015689999999999999        
         C61       1.0000    0.35180   0.12150   0.41270   Biso      1.000     C          -0.088431           
         C62       1.0000    0.52350   0.62500   0.66070   Biso      1.000     C          -0.1084   
         C63       1.0000    0.79120   0.06090   0.91270   Biso      1.000     C          -0.088448           
         C64       1.0000    0.12500   0.96430   0.10150   Biso      1.000     C          -0.108448           
         Cu1       1.0000    0.04851   0.56480   0.41197   Biso      1.000     Cu          0.745548  
         Cu2       1.0000    0.34717   0.36346   0.91197   Biso      1.000     Cu          0.74553   
         Cu3       1.0000    0.86346   0.45149   0.01629   Biso      1.000     Cu          0.7460060000000001  
         Cu4       1.0000    0.13654   0.54851   0.98371   Biso      1.000     Cu          0.746503  
         Cu5       1.0000    0.93520   0.84717   0.48371   Biso      1.000     Cu          0.7463069999999999  
         Cu6       1.0000    0.95149   0.43520   0.58803   Biso      1.000     Cu          0.7456619999999999  
         Cu7       1.0000    0.06480   0.15283   0.51629   Biso      1.000     Cu          0.746162  
         Cu8       1.0000    0.65283   0.63654   0.08803   Biso      1.000     Cu          0.745712  
         H1        1.0000    0.39940   0.79970   0.92410   Biso      1.000     H          0.120002  
         H2        1.0000    0.02470   0.10060   0.90030   Biso      1.000     H          0.12001400000000001           
         H3        1.0000    0.97530   0.89940   0.09970   Biso      1.000     H          0.12004000000000001           
         H4        1.0000    0.70180   0.75380   0.93440   Biso      1.000     H          0.129187  
         H5        1.0000    0.70030   0.12440   0.59970   Biso      1.000     H          0.119997  
         H6        1.0000    0.13520   0.03680   0.11860   Biso      1.000     H          0.106004  
         H7        1.0000    0.53680   0.91820   0.90160   Biso      1.000     H          0.10601400000000001           
         H8        1.0000    0.68060   0.23260   0.43440   Biso      1.000     H          0.129208  
         H9        1.0000    0.48340   0.36480   0.40160   Biso      1.000     H          0.106001  
         H10       1.0000    0.73260   0.79820   0.55200   Biso      1.000     H          0.129226  
         H11       1.0000    0.58180   0.98340   0.61860   Biso      1.000     H          0.10600799999999999           
         H12       1.0000    0.74620   0.18060   0.94800   Biso      1.000     H          0.129193  
         H13       1.0000    0.27330   0.99630   0.09640   Biso      1.000     H          0.101748  
         H14       1.0000    0.25380   0.81940   0.05200   Biso      1.000     H          0.129193  
         H15       1.0000    0.62440   0.52470   0.42410   Biso      1.000     H          0.119979  
         H16       1.0000    0.50370   0.10010   0.27700   Biso      1.000     H          0.101751  
         H17       1.0000    0.60010   0.82310   0.59640   Biso      1.000     H          0.101749  
         H18       1.0000    0.31940   0.76740   0.56560   Biso      1.000     H          0.129207  
         H19       1.0000    0.37560   0.47530   0.57590   Biso      1.000     H          0.119951  
         H20       1.0000    0.86480   0.96320   0.88140   Biso      1.000     H          0.105996  
         H21       1.0000    0.67690   0.77330   0.77700   Biso      1.000     H          0.101752  
         H22       1.0000    0.72670   0.00370   0.90360   Biso      1.000     H          0.101738  
         H23       1.0000    0.60060   0.20030   0.07590   Biso      1.000     H          0.120002  
         H24       1.0000    0.49630   0.89990   0.72300   Biso      1.000     H          0.101759  
         H25       1.0000    0.51660   0.63520   0.59840   Biso      1.000     H          0.10599000000000001           
         H26       1.0000    0.29820   0.24620   0.06560   Biso      1.000     H          0.129187  
         H27       1.0000    0.32310   0.22670   0.22300   Biso      1.000     H          0.101757  
         H28       1.0000    0.41820   0.01660   0.38140   Biso      1.000     H          0.106002  
         H29       1.0000    0.29970   0.87560   0.40030   Biso      1.000     H          0.11998699999999998           
         H30       1.0000    0.46320   0.08180   0.09840   Biso      1.000     H          0.10600699999999999           
         H31       1.0000    0.39990   0.17690   0.40360   Biso      1.000     H          0.101748  
         H32       1.0000    0.26740   0.20180   0.44800   Biso      1.000     H          0.129215  
         N1        1.0000    0.90660   0.43010   0.37350   Biso      1.000     N          -0.19219  
         N2        1.0000    0.44340   0.46690   0.87350   Biso      1.000     N          -0.192196           
         N3        1.0000    0.03310   0.40660   0.97650   Biso      1.000     N          -0.192504           
         N4        1.0000    0.54500   0.56730   0.92930   Biso      1.000     N          -0.24593299999999998          
         N5        1.0000    0.45500   0.43270   0.07070   Biso      1.000     N          -0.24593800000000002          
         N6        1.0000    0.86200   0.38430   0.42930   Biso      1.000     N          -0.24596700000000002          
         N7        1.0000    0.88430   0.95500   0.52230   Biso      1.000     N          -0.24615599999999999          
         N8        1.0000    0.06730   0.63800   0.02230   Biso      1.000     N          -0.24619000000000002          
         N9        1.0000    0.09340   0.56990   0.62650   Biso      1.000     N          -0.192173           
         N10       1.0000    0.96690   0.59340   0.02350   Biso      1.000     N          -0.192456           
         N11       1.0000    0.93270   0.36200   0.97770   Biso      1.000     N          -0.246106           
         N12       1.0000    0.13800   0.61570   0.57070   Biso      1.000     N          -0.245914           
         N13       1.0000    0.06990   0.94340   0.47650   Biso      1.000     N          -0.192492           
         N14       1.0000    0.55660   0.53310   0.12650   Biso      1.000     N          -0.192163           
         N15       1.0000    0.93010   0.05660   0.52350   Biso      1.000     N          -0.192449           
         N16       1.0000    0.11570   0.04500   0.47770   Biso      1.000     N          -0.24610100000000001          
         O1        1.0000    0.79905   0.37038   0.09105   Biso      1.000     O          -0.46851400000000004          
         O2        1.0000    0.03776   0.49059   0.75197   Biso      1.000     O          -0.528048           
         O3        1.0000    0.00941   0.26138   0.54717   Biso      1.000     O          -0.528465           
         O4        1.0000    0.76138   0.71421   0.25197   Biso      1.000     O          -0.528101           
         O5        1.0000    0.22067   0.29200   0.59105   Biso      1.000     O          -0.468528           
         O6        1.0000    0.20095   0.62962   0.90895   Biso      1.000     O          -0.468376           
         O7        1.0000    0.78579   0.53776   0.04717   Biso      1.000     O          -0.528551           
         O8        1.0000    0.77933   0.70800   0.40895   Biso      1.000     O          -0.468529           
         O9        1.0000    0.79200   0.70095   0.07133   Biso      1.000     O          -0.468613           
         O10       1.0000    0.23862   0.28579   0.74803   Biso      1.000     O          -0.5281399999999999           
         O11       1.0000    0.99059   0.73862   0.45283   Biso      1.000     O          -0.5284770000000001           
         O12       1.0000    0.87038   0.27933   0.57133   Biso      1.000     O          -0.468577           
         O13       1.0000    0.12962   0.72067   0.42867   Biso      1.000     O          -0.468567           
         O14       1.0000    0.21421   0.46224   0.95283   Biso      1.000     O          -0.5284300000000001           
         O15       1.0000    0.20800   0.29905   0.92867   Biso      1.000     O          -0.468542           
         O16       1.0000    0.96224   0.50941   0.24803   Biso      1.000     O          -0.528051 