
##########################################################################
#               Crystallographic Information Format file
#               Produced by PyCifRW module
#
#  This is a CIF file.  CIF has been adopted by the International
#  Union of Crystallography as the standard for data archiving and
#  transmission.
#
#  For information on this file format, follow the CIF links at
#  http://www.iucr.org
##########################################################################

data_image0

_cell_length_a                          15.7211
_cell_length_b                          15.7211
_cell_length_c                          15.7211
_cell_angle_alpha                       70.1062
_cell_angle_beta                        71.3706
_cell_angle_gamma                       109.894
_symmetry_space_group_name_H-M          'P 1'
_symmetry_int_tables_number             1
loop_
  _symmetry_equiv_pos_as_xyz
         'x, y, z' 
loop_
  _atom_site_label
  _atom_site_occupancy
  _atom_site_fract_x
  _atom_site_fract_y
  _atom_site_fract_z
  _atom_site_thermal_displace_type
  _atom_site_B_iso_or_equiv
  _atom_site_type_symbol
  _atom_site_charge
         C1        1.0000    0.46200   0.73950   0.59230   Biso      1.000     C          -0.218425           
         C2        1.0000    0.89340   0.27460   0.61760   Biso      1.000     C          0.029169  
         C3        1.0000    0.60780   0.22540   0.38120   Biso      1.000     C          0.029177  
         C4        1.0000    0.55600   0.83040   0.52040   Biso      1.000     C          -0.001167           
         C5        1.0000    0.19030   0.97020   0.58610   Biso      1.000     C          0.574089  
         C6        1.0000    0.09230   0.05430   0.66820   Biso      1.000     C          -0.218404           
         C7        1.0000    0.27990   0.72360   0.69030   Biso      1.000     C          0.574113  
         C8        1.0000    0.90770   0.94570   0.33180   Biso      1.000     C          -0.218404           
         C9        1.0000    0.85080   0.33040   0.72560   Biso      1.000     C          -0.00119  
         C10       1.0000    0.97960   0.92360   0.35080   Biso      1.000     C          -0.001163           
         C11       1.0000    0.11880   0.01100   0.60660   Biso      1.000     C          0.029172  
         C12       1.0000    0.22250   0.55430   0.03800   Biso      1.000     C          -0.218414           
         C13       1.0000    0.10660   0.72540   0.38240   Biso      1.000     C          0.029167  
         C14       1.0000    0.11760   0.51100   0.10780   Biso      1.000     C          0.029176  
         C15       1.0000    0.16820   0.76050   0.27750   Biso      1.000     C          -0.218389           
         C16       1.0000    0.53800   0.26050   0.40770   Biso      1.000     C          -0.218426           
         C17       1.0000    0.91390   0.22360   0.55630   Biso      1.000     C          0.574096  
         C18       1.0000    0.08610   0.77640   0.44370   Biso      1.000     C          0.574096  
         C19       1.0000    0.80970   0.02980   0.41390   Biso      1.000     C          0.574089  
         C20       1.0000    0.02040   0.07640   0.64920   Biso      1.000     C          -0.001163           
         C21       1.0000    0.94370   0.52980   0.77990   Biso      1.000     C          0.574102  
         C22       1.0000    0.83180   0.23950   0.72250   Biso      1.000     C          -0.218386           
         C23       1.0000    0.22560   0.57640   0.94400   Biso      1.000     C          -0.001167           
         C24       1.0000    0.77440   0.42360   0.05600   Biso      1.000     C          -0.001165           
         C25       1.0000    0.88240   0.48900   0.89220   Biso      1.000     C          0.029174  
         C26       1.0000    0.72010   0.27640   0.30970   Biso      1.000     C          0.574113  
         C27       1.0000    0.88120   0.98900   0.39340   Biso      1.000     C          0.029173  
         C28       1.0000    0.05630   0.47020   0.22010   Biso      1.000     C          0.574103  
         C29       1.0000    0.39220   0.77460   0.61880   Biso      1.000     C          0.02918   
         C30       1.0000    0.14920   0.66960   0.27440   Biso      1.000     C          -0.001185           
         C31       1.0000    0.44400   0.16960   0.47960   Biso      1.000     C          -0.001165           
         C32       1.0000    0.77750   0.44570   0.96200   Biso      1.000     C          -0.218413           
         Cu1       1.0000    0.90079   0.04940   0.53577   Biso      1.000     Cu          0.740572  
         Cu2       1.0000    0.96423   0.56344   0.58517   Biso      1.000     Cu          0.740577  
         Cu3       1.0000    0.35139   0.93656   0.59921   Biso      1.000     Cu          0.740572  
         Cu4       1.0000    0.91483   0.45060   0.14861   Biso      1.000     Cu          0.740596  
         Cu5       1.0000    0.08517   0.54940   0.85139   Biso      1.000     Cu          0.740591  
         Cu6       1.0000    0.64861   0.06344   0.40079   Biso      1.000     Cu          0.740567  
         Cu7       1.0000    0.03577   0.43656   0.41483   Biso      1.000     Cu          0.74058   
         Cu8       1.0000    0.09921   0.95060   0.46423   Biso      1.000     Cu          0.740573  
         H1        1.0000    0.55180   0.32910   0.38270   Biso      1.000     H          0.154036  
         H2        1.0000    0.78820   0.17090   0.77730   Biso      1.000     H          0.154018  
         H3        1.0000    0.38170   0.16700   0.51270   Biso      1.000     H          0.118113  
         H4        1.0000    0.98730   0.10560   0.67970   Biso      1.000     H          0.118114  
         H5        1.0000    0.61830   0.83300   0.48730   Biso      1.000     H          0.118113  
         H6        1.0000    0.71470   0.39440   0.11830   Biso      1.000     H          0.118112  
         H7        1.0000    0.72270   0.43450   0.94820   Biso      1.000     H          0.154035  
         H8        1.0000    0.21180   0.82910   0.22270   Biso      1.000     H          0.15402   
         H9        1.0000    0.01270   0.89440   0.32030   Biso      1.000     H          0.118113  
         H10       1.0000    0.82030   0.33300   0.78530   Biso      1.000     H          0.118121  
         H11       1.0000    0.44820   0.67090   0.61730   Biso      1.000     H          0.154035  
         H12       1.0000    0.28530   0.60560   0.88170   Biso      1.000     H          0.118113  
         H13       1.0000    0.11730   0.06550   0.71180   Biso      1.000     H          0.154032  
         H14       1.0000    0.27730   0.56550   0.05180   Biso      1.000     H          0.154035  
         H15       1.0000    0.88270   0.93450   0.28820   Biso      1.000     H          0.154033  
         H16       1.0000    0.17970   0.66700   0.21470   Biso      1.000     H          0.118121  
         N1        1.0000    0.06270   0.50880   0.05630   Biso      1.000     N          -0.23759  
         N2        1.0000    0.45520   0.08460   0.49520   Biso      1.000     N          -0.167599           
         N3        1.0000    0.44370   0.88100   0.56510   Biso      1.000     N          -0.237598           
         N4        1.0000    0.94610   0.38100   0.56270   Biso      1.000     N          -0.237597           
         N5        1.0000    0.92020   0.41540   0.62940   Biso      1.000     N          -0.167581           
         N6        1.0000    0.07980   0.58460   0.37060   Biso      1.000     N          -0.167606           
         N7        1.0000    0.93490   0.99120   0.44610   Biso      1.000     N          -0.237577           
         N8        1.0000    0.87060   0.45040   0.04480   Biso      1.000     N          -0.167628           
         N9        1.0000    0.93730   0.49120   0.94370   Biso      1.000     N          -0.237564           
         N10       1.0000    0.06510   0.00880   0.55390   Biso      1.000     N          -0.237576           
         N11       1.0000    0.54480   0.91540   0.50480   Biso      1.000     N          -0.167575           
         N12       1.0000    0.00480   0.04960   0.57980   Biso      1.000     N          -0.167595           
         N13       1.0000    0.05390   0.61900   0.43730   Biso      1.000     N          -0.237572           
         N14       1.0000    0.55630   0.11900   0.43490   Biso      1.000     N          -0.237573           
         N15       1.0000    0.12940   0.54960   0.95520   Biso      1.000     N          -0.167602           
         N16       1.0000    0.99520   0.95040   0.42020   Biso      1.000     N          -0.167595           
         O1        1.0000    0.22943   0.62520   0.74227   Biso      1.000     O          -0.480322           
         O2        1.0000    0.77057   0.37480   0.25773   Biso      1.000     O          -0.480322           
         O3        1.0000    0.97864   0.28310   0.46146   Biso      1.000     O          -0.510899           
         O4        1.0000    0.75544   0.21690   0.30446   Biso      1.000     O          -0.51093  
         O5        1.0000    0.03854   0.55990   0.74456   Biso      1.000     O          -0.510924           
         O6        1.0000    0.24456   0.78310   0.69554   Biso      1.000     O          -0.51093  
         O7        1.0000    0.13253   0.87480   0.39577   Biso      1.000     O          -0.480326           
         O8        1.0000    0.02136   0.71690   0.53854   Biso      1.000     O          -0.510899           
         O9        1.0000    0.19554   0.94010   0.52136   Biso      1.000     O          -0.510909           
         O10       1.0000    0.75773   0.02830   0.36747   Biso      1.000     O          -0.480323           
         O11       1.0000    0.10423   0.47170   0.27057   Biso      1.000     O          -0.480329           
         O12       1.0000    0.80446   0.05990   0.47864   Biso      1.000     O          -0.510909           
         O13       1.0000    0.24227   0.97170   0.63253   Biso      1.000     O          -0.480323           
         O14       1.0000    0.89577   0.52830   0.72943   Biso      1.000     O          -0.480329           
         O15       1.0000    0.96146   0.44010   0.25544   Biso      1.000     O          -0.510925           
         O16       1.0000    0.86747   0.12520   0.60423   Biso      1.000     O          -0.480326 