
##########################################################################
#               Crystallographic Information Format file
#               Produced by PyCifRW module
#
#  This is a CIF file.  CIF has been adopted by the International
#  Union of Crystallography as the standard for data archiving and
#  transmission.
#
#  For information on this file format, follow the CIF links at
#  http://www.iucr.org
##########################################################################

data_image0

_cell_length_a                          14.081
_cell_length_b                          14.413
_cell_length_c                          16.42
_cell_angle_alpha                       90
_cell_angle_beta                        97.814
_cell_angle_gamma                       90
_symmetry_space_group_name_H-M          'P 1'
_symmetry_int_tables_number             1
loop_
  _symmetry_equiv_pos_as_xyz
         'x, y, z' 
loop_
  _atom_site_label
  _atom_site_occupancy
  _atom_site_fract_x
  _atom_site_fract_y
  _atom_site_fract_z
  _atom_site_thermal_displace_type
  _atom_site_B_iso_or_equiv
  _atom_site_type_symbol
  _atom_site_charge
         C1        1.0000    0.75240   0.97620   0.38700   Biso      1.000     C          0.013664  
         C2        1.0000    0.25240   0.47620   0.38700   Biso      1.000     C          0.013662  
         C3        1.0000    0.40570   0.62380   0.15970   Biso      1.000     C          0.017849  
         C4        1.0000    0.44640   0.60140   0.23840   Biso      1.000     C          0.05172   
         C5        1.0000    0.24470   0.90260   0.80960   Biso      1.000     C          0.008531  
         C6        1.0000    0.38780   0.57830   0.29590   Biso      1.000     C          -0.161435           
         C7        1.0000    0.28830   0.57510   0.27150   Biso      1.000     C          0.046154  
         C8        1.0000    0.25530   0.59740   0.19040   Biso      1.000     C          0.00853   
         C9        1.0000    0.21170   0.92490   0.72850   Biso      1.000     C          0.046157  
         C10       1.0000    0.11220   0.92170   0.70410   Biso      1.000     C          -0.161437           
         C11       1.0000    0.60860   0.97360   0.43580   Biso      1.000     C          0.071014  
         C12       1.0000    0.05360   0.89860   0.76160   Biso      1.000     C          0.051722  
         C13       1.0000    0.57260   0.04190   0.38170   Biso      1.000     C          -0.123257           
         C14       1.0000    0.09430   0.87620   0.84030   Biso      1.000     C          0.017853  
         C15       1.0000    0.62950   0.07790   0.32740   Biso      1.000     C          -0.101054           
         C16       1.0000    0.72110   0.04440   0.32960   Biso      1.000     C          0.041778  
         C17       1.0000    0.24760   0.02380   0.61300   Biso      1.000     C          0.013664  
         C18       1.0000    0.90570   0.12380   0.15970   Biso      1.000     C          0.01785   
         C19       1.0000    0.94640   0.10140   0.23840   Biso      1.000     C          0.05172   
         C20       1.0000    0.27890   0.95560   0.67040   Biso      1.000     C          0.041773  
         C21       1.0000    0.10860   0.52640   0.93580   Biso      1.000     C          0.071013  
         C22       1.0000    0.22110   0.54440   0.32960   Biso      1.000     C          0.041772  
         C23       1.0000    0.12950   0.57790   0.32740   Biso      1.000     C          -0.101053           
         C24       1.0000    0.07260   0.54190   0.38170   Biso      1.000     C          -0.12326  
         C25       1.0000    0.28830   0.42490   0.77150   Biso      1.000     C          0.046154  
         C26       1.0000    0.38780   0.42170   0.79590   Biso      1.000     C          -0.161437           
         C27       1.0000    0.60860   0.02640   0.93580   Biso      1.000     C          0.071014  
         C28       1.0000    0.57260   0.95810   0.88170   Biso      1.000     C          -0.123257           
         C29       1.0000    0.44640   0.39860   0.73840   Biso      1.000     C          0.051719  
         C30       1.0000    0.62950   0.92210   0.82740   Biso      1.000     C          -0.101055           
         C31       1.0000    0.72110   0.95560   0.82960   Biso      1.000     C          0.041779  
         C32       1.0000    0.40570   0.37620   0.65970   Biso      1.000     C          0.017851  
         C33       1.0000    0.75240   0.02380   0.88700   Biso      1.000     C          0.013663  
         C34       1.0000    0.88780   0.07830   0.29590   Biso      1.000     C          -0.161434           
         C35       1.0000    0.25240   0.52380   0.88700   Biso      1.000     C          0.013663  
         C36       1.0000    0.94640   0.89860   0.73840   Biso      1.000     C          0.051718  
         C37       1.0000    0.88780   0.92170   0.79590   Biso      1.000     C          -0.161433           
         C38       1.0000    0.78830   0.92490   0.77150   Biso      1.000     C          0.046152  
         C39       1.0000    0.22110   0.45560   0.82960   Biso      1.000     C          0.041772  
         C40       1.0000    0.75530   0.90260   0.69040   Biso      1.000     C          0.008532  
         C41       1.0000    0.12950   0.42210   0.82740   Biso      1.000     C          -0.101053           
         C42       1.0000    0.89140   0.52640   0.56420   Biso      1.000     C          0.071012  
         C43       1.0000    0.10860   0.47360   0.43580   Biso      1.000     C          0.071015  
         C44       1.0000    0.07260   0.45810   0.88170   Biso      1.000     C          -0.123256           
         C45       1.0000    0.90570   0.87620   0.65970   Biso      1.000     C          0.017854  
         C46       1.0000    0.78830   0.07510   0.27150   Biso      1.000     C          0.046152  
         C47       1.0000    0.25530   0.40260   0.69040   Biso      1.000     C          0.008529  
         C48       1.0000    0.75530   0.09740   0.19040   Biso      1.000     C          0.008531  
         C49       1.0000    0.71170   0.42490   0.72850   Biso      1.000     C          0.046154  
         C50       1.0000    0.61220   0.57830   0.20410   Biso      1.000     C          -0.161436           
         C51       1.0000    0.71170   0.57510   0.22850   Biso      1.000     C          0.046154  
         C52       1.0000    0.05360   0.10140   0.26160   Biso      1.000     C          0.051718  
         C53       1.0000    0.61220   0.42170   0.70410   Biso      1.000     C          -0.161438           
         C54       1.0000    0.74470   0.59740   0.30960   Biso      1.000     C          0.008531  
         C55       1.0000    0.37050   0.92210   0.67260   Biso      1.000     C          -0.101052           
         C56       1.0000    0.77890   0.45560   0.67040   Biso      1.000     C          0.041772  
         C57       1.0000    0.09430   0.12380   0.34030   Biso      1.000     C          0.017853  
         C58       1.0000    0.59430   0.37620   0.84030   Biso      1.000     C          0.017848  
         C59       1.0000    0.39140   0.97360   0.06420   Biso      1.000     C          0.071013  
         C60       1.0000    0.87050   0.42210   0.67260   Biso      1.000     C          -0.101053           
         C61       1.0000    0.42740   0.04190   0.11830   Biso      1.000     C          -0.123256           
         C62       1.0000    0.74760   0.52380   0.61300   Biso      1.000     C          0.013664  
         C63       1.0000    0.37050   0.07790   0.17260   Biso      1.000     C          -0.101055           
         C64       1.0000    0.27890   0.04440   0.17040   Biso      1.000     C          0.041779  
         C65       1.0000    0.55360   0.39860   0.76160   Biso      1.000     C          0.051721  
         C66       1.0000    0.59430   0.62380   0.34030   Biso      1.000     C          0.01785   
         C67       1.0000    0.55360   0.60140   0.26160   Biso      1.000     C          0.051722  
         C68       1.0000    0.39140   0.02640   0.56420   Biso      1.000     C          0.071014  
         C69       1.0000    0.42740   0.95810   0.61830   Biso      1.000     C          -0.123254           
         C70       1.0000    0.89140   0.47360   0.06420   Biso      1.000     C          0.071012  
         C71       1.0000    0.24470   0.09740   0.30960   Biso      1.000     C          0.008531  
         C72       1.0000    0.11220   0.07830   0.20410   Biso      1.000     C          -0.161433           
         C73       1.0000    0.92740   0.54190   0.11830   Biso      1.000     C          -0.123258           
         C74       1.0000    0.92740   0.45810   0.61830   Biso      1.000     C          -0.123256           
         C75       1.0000    0.87050   0.57790   0.17260   Biso      1.000     C          -0.101055           
         C76       1.0000    0.24760   0.97620   0.11300   Biso      1.000     C          0.013664  
         C77       1.0000    0.21170   0.07510   0.22850   Biso      1.000     C          0.046153  
         C78       1.0000    0.74760   0.47620   0.11300   Biso      1.000     C          0.013662  
         C79       1.0000    0.74470   0.40260   0.80960   Biso      1.000     C          0.008529  
         C80       1.0000    0.77890   0.54440   0.17040   Biso      1.000     C          0.041776  
         Cu1       1.0000    0.24771   0.83885   0.98069   Biso      1.000     Cu          0.196142  
         Cu2       1.0000    0.74771   0.33885   0.98069   Biso      1.000     Cu          0.196149  
         Cu3       1.0000    0.74771   0.66115   0.48069   Biso      1.000     Cu          0.196136  
         Cu4       1.0000    0.25229   0.66115   0.01931   Biso      1.000     Cu          0.196137  
         Cu5       1.0000    0.75229   0.83885   0.51931   Biso      1.000     Cu          0.196139  
         Cu6       1.0000    0.24771   0.16115   0.48069   Biso      1.000     Cu          0.196136  
         Cu7       1.0000    0.75229   0.16115   0.01931   Biso      1.000     Cu          0.196133  
         Cu8       1.0000    0.25229   0.33885   0.51931   Biso      1.000     Cu          0.19615   
         H1        1.0000    0.41420   0.43510   0.85100   Biso      1.000     H          0.129361  
         H2        1.0000    0.44680   0.35790   0.62120   Biso      1.000     H          0.090735  
         H3        1.0000    0.99090   0.43590   0.61820   Biso      1.000     H          0.114805  
         H4        1.0000    0.89420   0.37530   0.71070   Biso      1.000     H          0.120522  
         H5        1.0000    0.58580   0.43510   0.64900   Biso      1.000     H          0.129361  
         H6        1.0000    0.68400   0.54630   0.61100   Biso      1.000     H          0.09103   
         H7        1.0000    0.10580   0.37530   0.78930   Biso      1.000     H          0.120523  
         H8        1.0000    0.55320   0.35790   0.87880   Biso      1.000     H          0.090735  
         H9        1.0000    0.00910   0.43590   0.88180   Biso      1.000     H          0.114805  
         H10       1.0000    0.06770   0.55110   0.97200   Biso      1.000     H          0.083876  
         H11       1.0000    0.31190   0.90420   0.82660   Biso      1.000     H          0.087622  
         H12       1.0000    0.81190   0.40420   0.82660   Biso      1.000     H          0.087621  
         H13       1.0000    0.08580   0.93510   0.64900   Biso      1.000     H          0.129363  
         H14       1.0000    0.43230   0.05110   0.52800   Biso      1.000     H          0.083876  
         H15       1.0000    0.05320   0.85790   0.87880   Biso      1.000     H          0.090736  
         H16       1.0000    0.18810   0.40420   0.67340   Biso      1.000     H          0.087621  
         H17       1.0000    0.18400   0.04630   0.61100   Biso      1.000     H          0.09103   
         H18       1.0000    0.49090   0.93590   0.61820   Biso      1.000     H          0.114806  
         H19       1.0000    0.39420   0.87530   0.71070   Biso      1.000     H          0.120524  
         H20       1.0000    0.31600   0.54630   0.88900   Biso      1.000     H          0.09103   
         H21       1.0000    0.06770   0.44890   0.47200   Biso      1.000     H          0.083876  
         H22       1.0000    0.93230   0.55110   0.52800   Biso      1.000     H          0.083876  
         H23       1.0000    0.43230   0.94890   0.02800   Biso      1.000     H          0.083876  
         H24       1.0000    0.41420   0.56490   0.35100   Biso      1.000     H          0.129361  
         H25       1.0000    0.18810   0.59580   0.17340   Biso      1.000     H          0.087621  
         H26       1.0000    0.81190   0.59580   0.32660   Biso      1.000     H          0.087621  
         H27       1.0000    0.56770   0.94890   0.47200   Biso      1.000     H          0.083876  
         H28       1.0000    0.50910   0.06410   0.38180   Biso      1.000     H          0.114806  
         H29       1.0000    0.60580   0.12470   0.28930   Biso      1.000     H          0.120524  
         H30       1.0000    0.99090   0.56410   0.11820   Biso      1.000     H          0.114805  
         H31       1.0000    0.81600   0.95370   0.38900   Biso      1.000     H          0.09103   
         H32       1.0000    0.55320   0.64210   0.37880   Biso      1.000     H          0.090736  
         H33       1.0000    0.94680   0.14210   0.12120   Biso      1.000     H          0.090736  
         H34       1.0000    0.91420   0.06490   0.35100   Biso      1.000     H          0.129362  
         H35       1.0000    0.68810   0.09580   0.17340   Biso      1.000     H          0.087621  
         H36       1.0000    0.68400   0.45370   0.11100   Biso      1.000     H          0.09103   
         H37       1.0000    0.93230   0.44890   0.02800   Biso      1.000     H          0.083876  
         H38       1.0000    0.58580   0.56490   0.14900   Biso      1.000     H          0.129362  
         H39       1.0000    0.44680   0.64210   0.12120   Biso      1.000     H          0.090735  
         H40       1.0000    0.89420   0.62470   0.21070   Biso      1.000     H          0.120522  
         H41       1.0000    0.39420   0.12470   0.21070   Biso      1.000     H          0.120524  
         H42       1.0000    0.56770   0.05110   0.97200   Biso      1.000     H          0.083876  
         H43       1.0000    0.50910   0.93590   0.88180   Biso      1.000     H          0.114806  
         H44       1.0000    0.60580   0.87530   0.78930   Biso      1.000     H          0.120524  
         H45       1.0000    0.81600   0.04630   0.88900   Biso      1.000     H          0.09103   
         H46       1.0000    0.31190   0.09580   0.32660   Biso      1.000     H          0.087621  
         H47       1.0000    0.08580   0.06490   0.14900   Biso      1.000     H          0.129362  
         H48       1.0000    0.49090   0.06410   0.11820   Biso      1.000     H          0.114806  
         H49       1.0000    0.94680   0.85790   0.62120   Biso      1.000     H          0.090736  
         H50       1.0000    0.68810   0.90420   0.67340   Biso      1.000     H          0.087621  
         H51       1.0000    0.05320   0.14210   0.37880   Biso      1.000     H          0.090736  
         H52       1.0000    0.18400   0.95370   0.11100   Biso      1.000     H          0.09103   
         H53       1.0000    0.00910   0.56410   0.38180   Biso      1.000     H          0.114806  
         H54       1.0000    0.10580   0.62470   0.28930   Biso      1.000     H          0.120522  
         H55       1.0000    0.31600   0.45370   0.38900   Biso      1.000     H          0.09103   
         H56       1.0000    0.91420   0.93510   0.85100   Biso      1.000     H          0.129362  
         I1        1.0000    0.60363   0.73849   0.54864   Biso      1.000     I          -0.488569           
         I2        1.0000    0.60363   0.26151   0.04864   Biso      1.000     I          -0.48857  
         I3        1.0000    0.39637   0.26151   0.45136   Biso      1.000     I          -0.488569           
         I4        1.0000    0.10363   0.23849   0.54864   Biso      1.000     I          -0.488569           
         I5        1.0000    0.10363   0.76151   0.04864   Biso      1.000     I          -0.488568           
         I6        1.0000    0.39637   0.73849   0.95136   Biso      1.000     I          -0.488568           
         I7        1.0000    0.89637   0.76151   0.45136   Biso      1.000     I          -0.48857  
         I8        1.0000    0.89637   0.23849   0.95136   Biso      1.000     I          -0.48857  
         N1        1.0000    0.18850   0.12090   0.36510   Biso      1.000     N          -0.136339           
         N2        1.0000    0.69660   0.05990   0.94050   Biso      1.000     N          -0.154144           
         N3        1.0000    0.19660   0.55990   0.94050   Biso      1.000     N          -0.154145           
         N4        1.0000    0.81150   0.87910   0.63490   Biso      1.000     N          -0.13634  
         N5        1.0000    0.30340   0.94010   0.05950   Biso      1.000     N          -0.154145           
         N6        1.0000    0.19660   0.44010   0.44050   Biso      1.000     N          -0.154147           
         N7        1.0000    0.81150   0.12090   0.13490   Biso      1.000     N          -0.136338           
         N8        1.0000    0.18850   0.87910   0.86510   Biso      1.000     N          -0.13634  
         N9        1.0000    0.31150   0.62090   0.13490   Biso      1.000     N          -0.136339           
         N10       1.0000    0.68850   0.62090   0.36510   Biso      1.000     N          -0.136339           
         N11       1.0000    0.30340   0.05990   0.55950   Biso      1.000     N          -0.154144           
         N12       1.0000    0.31150   0.37910   0.63490   Biso      1.000     N          -0.136341           
         N13       1.0000    0.80340   0.44010   0.05950   Biso      1.000     N          -0.154146           
         N14       1.0000    0.68850   0.37910   0.86510   Biso      1.000     N          -0.136341           
         N15       1.0000    0.80340   0.55990   0.55950   Biso      1.000     N          -0.154145           
         N16       1.0000    0.69660   0.94010   0.44050   Biso      1.000     N          -0.154145 