
##########################################################################
#               Crystallographic Information Format file
#               Produced by PyCifRW module
#
#  This is a CIF file.  CIF has been adopted by the International
#  Union of Crystallography as the standard for data archiving and
#  transmission.
#
#  For information on this file format, follow the CIF links at
#  http://www.iucr.org
##########################################################################

data_image0

_cell_length_a                          10.0916
_cell_length_b                          10.0916
_cell_length_c                          16.4373
_cell_angle_alpha                       95.9263
_cell_angle_beta                        95.9263
_cell_angle_gamma                       92.3616
_symmetry_space_group_name_H-M          'P 1'
_symmetry_int_tables_number             1
loop_
  _symmetry_equiv_pos_as_xyz
         'x, y, z' 
loop_
  _atom_site_label
  _atom_site_occupancy
  _atom_site_fract_x
  _atom_site_fract_y
  _atom_site_fract_z
  _atom_site_thermal_displace_type
  _atom_site_B_iso_or_equiv
  _atom_site_type_symbol
  _atom_site_charge
         C1        1.0000    0.18320   0.94500   0.46850   Biso      1.000     C          0.006556  
         C2        1.0000    0.61270   0.54810   0.43400   Biso      1.000     C          -0.117748           
         C3        1.0000    0.59070   0.45330   0.48750   Biso      1.000     C          -0.106299           
         C4        1.0000    0.46460   0.39160   0.48570   Biso      1.000     C          0.049223  
         C5        1.0000    0.36050   0.42450   0.43050   Biso      1.000     C          0.011618999999999999          
         C6        1.0000    0.50120   0.31100   0.61540   Biso      1.000     C          0.001375  
         C7        1.0000    0.43350   0.29610   0.53670   Biso      1.000     C          0.062685  
         C8        1.0000    0.33200   0.19740   0.51550   Biso      1.000     C          -0.163529           
         C9        1.0000    0.50860   0.58100   0.37880   Biso      1.000     C          0.05469299999999999           
         C10       1.0000    0.29820   0.11360   0.57300   Biso      1.000     C          0.056185  
         C11       1.0000    0.19460   0.00440   0.54930   Biso      1.000     C          0.057513  
         C12       1.0000    0.86540   0.92980   0.69110   Biso      1.000     C          0.010759999999999999          
         C13       1.0000    0.90270   0.82870   0.63540   Biso      1.000     C          0.035653  
         C14       1.0000    0.85090   0.69890   0.63530   Biso      1.000     C          -0.09916900000000001          
         C15       1.0000    0.76170   0.67030   0.69080   Biso      1.000     C          -0.116336           
         C16       1.0000    0.72430   0.77130   0.74660   Biso      1.000     C          0.05778200000000001           
         C17       1.0000    0.99130   0.81190   0.49400   Biso      1.000     C          0.000614  
         C18       1.0000    0.36590   0.12850   0.65170   Biso      1.000     C          0.00525   
         C19       1.0000    0.92980   0.86540   0.19110   Biso      1.000     C          0.010767  
         C20       1.0000    0.82870   0.90270   0.13540   Biso      1.000     C          0.035657  
         C21       1.0000    0.69890   0.85090   0.13530   Biso      1.000     C          -0.09916699999999999          
         C22       1.0000    0.58100   0.50860   0.87880   Biso      1.000     C          0.054688  
         C23       1.0000    0.54810   0.61270   0.93400   Biso      1.000     C          -0.11774000000000001          
         C24       1.0000    0.45330   0.59070   0.98750   Biso      1.000     C          -0.106299           
         C25       1.0000    0.39160   0.46460   0.98570   Biso      1.000     C          0.04922   
         C26       1.0000    0.42450   0.36050   0.93050   Biso      1.000     C          0.011618999999999999          
         C27       1.0000    0.31100   0.50120   0.11540   Biso      1.000     C          0.00137   
         C28       1.0000    0.29610   0.43350   0.03670   Biso      1.000     C          0.062685  
         C29       1.0000    0.19740   0.33200   0.01550   Biso      1.000     C          -0.16353299999999998          
         C30       1.0000    0.11360   0.29820   0.07300   Biso      1.000     C          0.056185  
         C31       1.0000    0.12850   0.36590   0.15170   Biso      1.000     C          0.0052439999999999995         
         C32       1.0000    0.94500   0.18320   0.96850   Biso      1.000     C          0.006555  
         C33       1.0000    0.00440   0.19460   0.04930   Biso      1.000     C          0.057513  
         C34       1.0000    0.96760   0.10440   0.10240   Biso      1.000     C          -0.157747           
         C35       1.0000    0.87140   0.00280   0.07480   Biso      1.000     C          0.04718   
         C36       1.0000    0.81190   0.99130   0.99400   Biso      1.000     C          0.000607  
         C37       1.0000    0.77130   0.72430   0.24660   Biso      1.000     C          0.057783  
         C38       1.0000    0.67030   0.76170   0.19080   Biso      1.000     C          -0.116326           
         C39       1.0000    0.00280   0.87140   0.57480   Biso      1.000     C          0.047181  
         C40       1.0000    0.10440   0.96760   0.60240   Biso      1.000     C          -0.157747           
         Cu1       1.0000    0.73991   0.06451   0.82788   Biso      1.000     Cu          0.202898  
         Cu2       1.0000    0.56085   0.23701   0.79130   Biso      1.000     Cu          0.207569  
         Cu3       1.0000    0.06451   0.73991   0.32788   Biso      1.000     Cu          0.20291199999999998           
         Cu4       1.0000    0.23701   0.56085   0.29130   Biso      1.000     Cu          0.20756999999999998           
         H1        1.0000    0.24490   0.97010   0.43220   Biso      1.000     H          0.10474100000000001           
         H2        1.0000    0.90080   0.01860   0.69120   Biso      1.000     H          0.101675  
         H3        1.0000    0.87640   0.62980   0.59720   Biso      1.000     H          0.120046  
         H4        1.0000    0.72630   0.58150   0.69070   Biso      1.000     H          0.113719  
         H5        1.0000    0.66340   0.75160   0.78460   Biso      1.000     H          0.09830499999999999           
         H6        1.0000    0.92180   0.74620   0.47510   Biso      1.000     H          0.10282100000000001           
         H7        1.0000    0.11220   0.00820   0.65750   Biso      1.000     H          0.13026600000000002           
         H8        1.0000    0.64570   0.52370   0.84220   Biso      1.000     H          0.09585700000000001           
         H9        1.0000    0.34280   0.07120   0.69100   Biso      1.000     H          0.105082  
         H10       1.0000    0.28570   0.18730   0.46170   Biso      1.000     H          0.12686   
         H11       1.0000    0.27430   0.38230   0.42930   Biso      1.000     H          0.102267  
         H12       1.0000    0.66180   0.43080   0.52530   Biso      1.000     H          0.11701900000000001           
         H13       1.0000    0.57060   0.37840   0.62990   Biso      1.000     H          0.100689  
         H14       1.0000    0.52370   0.64570   0.34220   Biso      1.000     H          0.09585700000000001           
         H15       1.0000    0.59030   0.69890   0.93520   Biso      1.000     H          0.11523900000000001           
         H16       1.0000    0.43080   0.66180   0.02530   Biso      1.000     H          0.11701700000000001           
         H17       1.0000    0.38230   0.27430   0.92930   Biso      1.000     H          0.102267  
         H18       1.0000    0.37840   0.57060   0.12990   Biso      1.000     H          0.100688  
         H19       1.0000    0.69890   0.59030   0.43520   Biso      1.000     H          0.11524000000000001           
         H20       1.0000    0.07120   0.34280   0.19100   Biso      1.000     H          0.105081  
         H21       1.0000    0.97010   0.24490   0.93220   Biso      1.000     H          0.104742  
         H22       1.0000    0.18730   0.28570   0.96170   Biso      1.000     H          0.12686   
         H23       1.0000    0.74620   0.92180   0.97510   Biso      1.000     H          0.102822  
         H24       1.0000    0.75160   0.66340   0.28460   Biso      1.000     H          0.09830599999999999           
         H25       1.0000    0.58150   0.72630   0.19070   Biso      1.000     H          0.11372   
         H26       1.0000    0.62980   0.87640   0.09720   Biso      1.000     H          0.12005   
         H27       1.0000    0.01860   0.90080   0.19120   Biso      1.000     H          0.101676  
         H28       1.0000    0.00820   0.11220   0.15750   Biso      1.000     H          0.13026500000000002           
         I1        1.0000    0.81057   0.29011   0.76420   Biso      1.000     I          -0.48714300000000005          
         I2        1.0000    0.49095   0.01051   0.85474   Biso      1.000     I          -0.489357           
         I3        1.0000    0.29011   0.81057   0.26420   Biso      1.000     I          -0.48713900000000004          
         I4        1.0000    0.01051   0.49095   0.35474   Biso      1.000     I          -0.48935100000000004          
         N1        1.0000    0.90120   0.77620   0.24670   Biso      1.000     N          -0.173241           
         N2        1.0000    0.84870   0.08150   0.94090   Biso      1.000     N          -0.157342           
         N3        1.0000    0.38260   0.51920   0.37700   Biso      1.000     N          -0.17013399999999998          
         N4        1.0000    0.22720   0.46740   0.17290   Biso      1.000     N          -0.164109           
         N5        1.0000    0.08150   0.84870   0.44090   Biso      1.000     N          -0.157351           
         N6        1.0000    0.77620   0.90120   0.74670   Biso      1.000     N          -0.173234           
         N7        1.0000    0.46740   0.22720   0.67290   Biso      1.000     N          -0.16411099999999998          
         N8        1.0000    0.51920   0.38260   0.87700   Biso      1.000     N          -0.17013499999999998 