
##########################################################################
#               Crystallographic Information Format file
#               Produced by PyCifRW module
#
#  This is a CIF file.  CIF has been adopted by the International
#  Union of Crystallography as the standard for data archiving and
#  transmission.
#
#  For information on this file format, follow the CIF links at
#  http://www.iucr.org
##########################################################################

data_image0

_cell_length_a                          7.5106
_cell_length_b                          31.1959
_cell_length_c                          10.5537
_cell_angle_alpha                       90
_cell_angle_beta                        118.658
_cell_angle_gamma                       90
_symmetry_space_group_name_H-M          'P 1'
_symmetry_int_tables_number             1
loop_
  _symmetry_equiv_pos_as_xyz
         'x, y, z' 
loop_
  _atom_site_label
  _atom_site_occupancy
  _atom_site_fract_x
  _atom_site_fract_y
  _atom_site_fract_z
  _atom_site_thermal_displace_type
  _atom_site_B_iso_or_equiv
  _atom_site_type_symbol
  _atom_site_charge
         C1        1.0000    0.95360   0.08703   0.52480   Biso      1.000     C          0.040681999999999996          
         C2        1.0000    0.32740   0.57795   0.76950   Biso      1.000     C          -0.053736           
         C3        1.0000    0.19580   0.56596   0.62750   Biso      1.000     C          -0.129959           
         C4        1.0000    0.05060   0.59444   0.53200   Biso      1.000     C          -0.023562           
         C5        1.0000    0.03670   0.63504   0.58060   Biso      1.000     C          -0.130913           
         C6        1.0000    0.16960   0.64763   0.72230   Biso      1.000     C          -0.027761           
         C7        1.0000    0.31740   0.61936   0.81570   Biso      1.000     C          -0.132901           
         C8        1.0000    0.47880   0.54673   0.87100   Biso      1.000     C          0.5903510000000001  
         C9        1.0000    0.15380   0.69146   0.77490   Biso      1.000     C          0.5475369999999999  
         C10       1.0000    0.09390   0.41875   0.62030   Biso      1.000     C          0.582907  
         C11       1.0000    0.31020   0.66755   0.26830   Biso      1.000     C          0.077374  
         C12       1.0000    0.04640   0.91297   0.47520   Biso      1.000     C          0.040681999999999996          
         C13       1.0000    0.28060   0.63426   0.17390   Biso      1.000     C          -0.165472           
         C14       1.0000    0.92280   0.64618   0.07490   Biso      1.000     C          -0.17691199999999999          
         C15       1.0000    0.96590   0.67914   0.17020   Biso      1.000     C          0.10340999999999999           
         C16       1.0000    0.84840   0.45024   0.99970   Biso      1.000     C          -0.042477999999999995         
         C17       1.0000    0.52120   0.45327   0.12900   Biso      1.000     C          0.5903510000000001  
         C18       1.0000    0.68260   0.38064   0.18430   Biso      1.000     C          -0.132901           
         C19       1.0000    0.83040   0.35237   0.27770   Biso      1.000     C          -0.027761           
         C20       1.0000    0.96330   0.36496   0.41940   Biso      1.000     C          -0.130913           
         C21       1.0000    0.94940   0.40556   0.46800   Biso      1.000     C          -0.023562           
         C22       1.0000    0.80420   0.43404   0.37250   Biso      1.000     C          -0.12996  
         C23       1.0000    0.67260   0.42205   0.23050   Biso      1.000     C          -0.053735000000000005         
         C24       1.0000    0.08090   0.62316   0.07280   Biso      1.000     C          0.097692  
         C25       1.0000    0.74350   0.61323   0.74640   Biso      1.000     C          0.016222999999999998          
         C26       1.0000    0.15160   0.95024   0.50030   Biso      1.000     C          -0.042464           
         C27       1.0000    0.76580   0.96690   0.13780   Biso      1.000     C          -0.198614           
         C28       1.0000    0.09320   0.45539   0.21930   Biso      1.000     C          0.298161  
         C29       1.0000    0.23420   0.46690   0.36220   Biso      1.000     C          -0.198614           
         C30       1.0000    0.37970   0.43843   0.44440   Biso      1.000     C          -0.03481  
         C31       1.0000    0.38900   0.39822   0.39010   Biso      1.000     C          -0.12192599999999999          
         C32       1.0000    0.25650   0.38677   0.25360   Biso      1.000     C          0.016247  
         C33       1.0000    0.09390   0.08125   0.12030   Biso      1.000     C          0.582907  
         C34       1.0000    0.31020   0.83245   0.76830   Biso      1.000     C          0.077374  
         C35       1.0000    0.28060   0.86574   0.67390   Biso      1.000     C          -0.165472           
         C36       1.0000    0.08090   0.87684   0.57280   Biso      1.000     C          0.097692  
         C37       1.0000    0.92280   0.85382   0.57490   Biso      1.000     C          -0.17691199999999999          
         C38       1.0000    0.90680   0.95539   0.28070   Biso      1.000     C          0.298161  
         C39       1.0000    0.96590   0.82086   0.67020   Biso      1.000     C          0.10340999999999999           
         C40       1.0000    0.52120   0.04673   0.62900   Biso      1.000     C          0.5903510000000001  
         C41       1.0000    0.68260   0.11936   0.68430   Biso      1.000     C          -0.132901           
         C42       1.0000    0.83040   0.14763   0.77770   Biso      1.000     C          -0.027761           
         C43       1.0000    0.96330   0.13504   0.91940   Biso      1.000     C          -0.130913           
         C44       1.0000    0.94940   0.09444   0.96800   Biso      1.000     C          -0.023562           
         C45       1.0000    0.80420   0.06596   0.87250   Biso      1.000     C          -0.12996  
         C46       1.0000    0.67260   0.07795   0.73050   Biso      1.000     C          -0.053735000000000005         
         C47       1.0000    0.74350   0.88677   0.24640   Biso      1.000     C          0.016222999999999998          
         C48       1.0000    0.61100   0.89822   0.10990   Biso      1.000     C          -0.121902           
         C49       1.0000    0.62030   0.93843   0.05560   Biso      1.000     C          -0.034813           
         C50       1.0000    0.84620   0.19146   0.72510   Biso      1.000     C          0.5475369999999999  
         C51       1.0000    0.61100   0.60178   0.60990   Biso      1.000     C          -0.1219   
         C52       1.0000    0.84620   0.30854   0.22510   Biso      1.000     C          0.547536  
         C53       1.0000    0.62030   0.56157   0.55560   Biso      1.000     C          -0.034829           
         C54       1.0000    0.90610   0.91875   0.87970   Biso      1.000     C          0.582907  
         C55       1.0000    0.68980   0.16755   0.23170   Biso      1.000     C          0.077374  
         C56       1.0000    0.71940   0.13426   0.32610   Biso      1.000     C          -0.165472           
         C57       1.0000    0.91910   0.12316   0.42720   Biso      1.000     C          0.097692  
         C58       1.0000    0.07720   0.14618   0.42510   Biso      1.000     C          -0.17691199999999999          
         C59       1.0000    0.15380   0.80854   0.27490   Biso      1.000     C          0.547536  
         C60       1.0000    0.47880   0.95327   0.37100   Biso      1.000     C          0.5903510000000001  
         C61       1.0000    0.31740   0.88064   0.31570   Biso      1.000     C          -0.132901           
         C62       1.0000    0.16960   0.85237   0.22230   Biso      1.000     C          -0.027761           
         C63       1.0000    0.03670   0.86496   0.08060   Biso      1.000     C          -0.130913           
         C64       1.0000    0.05060   0.90556   0.03200   Biso      1.000     C          -0.023562           
         C65       1.0000    0.19580   0.93404   0.12750   Biso      1.000     C          -0.12996  
         C66       1.0000    0.32740   0.92205   0.26950   Biso      1.000     C          -0.053735000000000005         
         C67       1.0000    0.25650   0.11323   0.75360   Biso      1.000     C          0.016222999999999998          
         C68       1.0000    0.38900   0.10178   0.89010   Biso      1.000     C          -0.1219   
         C69       1.0000    0.37970   0.06157   0.94440   Biso      1.000     C          -0.034828           
         C70       1.0000    0.23420   0.03310   0.86220   Biso      1.000     C          -0.198598           
         C71       1.0000    0.09320   0.04461   0.71930   Biso      1.000     C          0.298159  
         C72       1.0000    0.84840   0.04976   0.49970   Biso      1.000     C          -0.042464           
         C73       1.0000    0.90610   0.58125   0.37970   Biso      1.000     C          0.582907  
         C74       1.0000    0.68980   0.33245   0.73170   Biso      1.000     C          0.077374  
         C75       1.0000    0.03410   0.17914   0.32980   Biso      1.000     C          0.10340999999999999           
         C76       1.0000    0.95360   0.41297   0.02480   Biso      1.000     C          0.040694  
         C77       1.0000    0.76580   0.53310   0.63780   Biso      1.000     C          -0.198598           
         C78       1.0000    0.07720   0.35382   0.92510   Biso      1.000     C          -0.17691199999999999          
         C79       1.0000    0.91910   0.37684   0.92720   Biso      1.000     C          0.097691  
         C80       1.0000    0.04640   0.58703   0.97520   Biso      1.000     C          0.040681999999999996          
         C81       1.0000    0.90680   0.54461   0.78070   Biso      1.000     C          0.298159  
         C82       1.0000    0.15160   0.54976   0.00030   Biso      1.000     C          -0.042464           
         C83       1.0000    0.03410   0.32086   0.82980   Biso      1.000     C          0.10340999999999999           
         C84       1.0000    0.71940   0.36574   0.82610   Biso      1.000     C          -0.165472           
         H1        1.0000    0.26880   0.54300   0.08880   Biso      1.000     H          0.133511  
         H2        1.0000    0.26330   0.14080   0.71800   Biso      1.000     H          0.120621  
         H3        1.0000    0.79480   0.46200   0.40450   Biso      1.000     H          0.11865099999999999           
         H4        1.0000    0.78580   0.86110   0.51030   Biso      1.000     H          0.130462  
         H5        1.0000    0.58870   0.12820   0.58920   Biso      1.000     H          0.12825899999999998           
         H6        1.0000    0.20520   0.96200   0.09550   Biso      1.000     H          0.11865099999999999           
         H7        1.0000    0.49080   0.12150   0.95060   Biso      1.000     H          0.122537  
         H8        1.0000    0.85660   0.80490   0.66770   Biso      1.000     H          0.106698  
         H9        1.0000    0.47680   0.05410   0.04030   Biso      1.000     H          0.11746500000000001           
         H10       1.0000    0.44550   0.82510   0.83680   Biso      1.000     H          0.098392  
         H11       1.0000    0.26330   0.35920   0.21800   Biso      1.000     H          0.12062   
         H12       1.0000    0.22700   0.00590   0.89980   Biso      1.000     H          0.146323  
         H13       1.0000    0.49080   0.37850   0.45060   Biso      1.000     H          0.12253900000000001           
         H14       1.0000    0.73670   0.64080   0.78200   Biso      1.000     H          0.12062200000000001           
         H15       1.0000    0.47680   0.44590   0.54030   Biso      1.000     H          0.11746400000000001           
         H16       1.0000    0.77300   0.50590   0.60020   Biso      1.000     H          0.146323  
         H17       1.0000    0.22700   0.49410   0.39980   Biso      1.000     H          0.146324  
         H18       1.0000    0.73120   0.04300   0.41120   Biso      1.000     H          0.133511  
         H19       1.0000    0.50920   0.62150   0.54940   Biso      1.000     H          0.122537  
         H20       1.0000    0.73120   0.45700   0.91120   Biso      1.000     H          0.133512  
         H21       1.0000    0.39270   0.88080   0.67720   Biso      1.000     H          0.14345   
         H22       1.0000    0.06410   0.34560   0.48300   Biso      1.000     H          0.117074  
         H23       1.0000    0.44550   0.67490   0.33680   Biso      1.000     H          0.098393  
         H24       1.0000    0.39270   0.61920   0.17720   Biso      1.000     H          0.14345   
         H25       1.0000    0.55450   0.32510   0.66320   Biso      1.000     H          0.098393  
         H26       1.0000    0.60730   0.38080   0.82280   Biso      1.000     H          0.14345   
         H27       1.0000    0.41130   0.62820   0.91080   Biso      1.000     H          0.12825899999999998           
         H28       1.0000    0.55450   0.17490   0.16320   Biso      1.000     H          0.098393  
         H29       1.0000    0.93590   0.65440   0.51700   Biso      1.000     H          0.117074  
         H30       1.0000    0.78580   0.63890   0.01030   Biso      1.000     H          0.130462  
         H31       1.0000    0.60730   0.11920   0.32280   Biso      1.000     H          0.14345   
         H32       1.0000    0.20520   0.53800   0.59550   Biso      1.000     H          0.11865099999999999           
         H33       1.0000    0.85660   0.69510   0.16770   Biso      1.000     H          0.106698  
         H34       1.0000    0.21420   0.13890   0.48970   Biso      1.000     H          0.130462  
         H35       1.0000    0.06410   0.15440   0.98300   Biso      1.000     H          0.117074  
         H36       1.0000    0.21420   0.36110   0.98970   Biso      1.000     H          0.130462  
         H37       1.0000    0.14340   0.19510   0.33230   Biso      1.000     H          0.106698  
         H38       1.0000    0.52320   0.55410   0.45970   Biso      1.000     H          0.11746500000000001           
         H39       1.0000    0.77300   0.99410   0.10020   Biso      1.000     H          0.146324  
         H40       1.0000    0.52320   0.94590   0.95970   Biso      1.000     H          0.11746400000000001           
         H41       1.0000    0.14340   0.30490   0.83230   Biso      1.000     H          0.106698  
         H42       1.0000    0.50920   0.87850   0.04940   Biso      1.000     H          0.12253800000000001           
         H43       1.0000    0.41130   0.87180   0.41080   Biso      1.000     H          0.12825899999999998           
         H44       1.0000    0.73670   0.85920   0.28200   Biso      1.000     H          0.120621  
         H45       1.0000    0.58870   0.37180   0.08920   Biso      1.000     H          0.12825899999999998           
         H46       1.0000    0.79480   0.03800   0.90450   Biso      1.000     H          0.11865099999999999           
         H47       1.0000    0.26880   0.95700   0.58880   Biso      1.000     H          0.133511  
         H48       1.0000    0.93590   0.84560   0.01700   Biso      1.000     H          0.117074  
         N1        1.0000    0.93050   0.47673   0.11590   Biso      1.000     N          -0.371942           
         N2        1.0000    0.84180   0.30994   0.73160   Biso      1.000     N          -0.190422           
         N3        1.0000    0.06950   0.97673   0.38410   Biso      1.000     N          -0.371944           
         N4        1.0000    0.06950   0.52327   0.88410   Biso      1.000     N          -0.371944           
         N5        1.0000    0.11030   0.41602   0.16620   Biso      1.000     N          0.0060609999999999995         
         N6        1.0000    0.88970   0.58398   0.83380   Biso      1.000     N          0.006064  
         N7        1.0000    0.88970   0.91602   0.33380   Biso      1.000     N          0.006064  
         N8        1.0000    0.15820   0.80994   0.76840   Biso      1.000     N          -0.190422           
         N9        1.0000    0.15820   0.69006   0.26840   Biso      1.000     N          -0.190423           
         N10       1.0000    0.84180   0.19006   0.23160   Biso      1.000     N          -0.190423           
         N11       1.0000    0.11030   0.08398   0.66620   Biso      1.000     N          0.006064  
         N12       1.0000    0.93050   0.02327   0.61590   Biso      1.000     N          -0.37194499999999997          
         O1        1.0000    0.44910   0.99294   0.34470   Biso      1.000     O          -0.571774           
         O2        1.0000    0.62930   0.93786   0.48190   Biso      1.000     O          -0.5288970000000001           
         O3        1.0000    0.74890   0.89870   0.80660   Biso      1.000     O          -0.545859           
         O4        1.0000    0.28300   0.79757   0.40240   Biso      1.000     O          -0.49677200000000005          
         O5        1.0000    0.01390   0.78353   0.19430   Biso      1.000     O          -0.563896           
         O6        1.0000    0.01390   0.71647   0.69430   Biso      1.000     O          -0.563896           
         O7        1.0000    0.28300   0.70243   0.90240   Biso      1.000     O          -0.49677200000000005          
         O8        1.0000    0.96440   0.95180   0.83640   Biso      1.000     O          -0.582788           
         O9        1.0000    0.44910   0.50706   0.84470   Biso      1.000     O          -0.571775           
         O10       1.0000    0.55090   0.49294   0.15530   Biso      1.000     O          -0.571775           
         O11       1.0000    0.62930   0.56214   0.98190   Biso      1.000     O          -0.528896           
         O12       1.0000    0.03560   0.45180   0.66360   Biso      1.000     O          -0.582788           
         O13       1.0000    0.71700   0.29757   0.09760   Biso      1.000     O          -0.49677200000000005          
         O14       1.0000    0.98610   0.28353   0.30570   Biso      1.000     O          -0.563896           
         O15       1.0000    0.74890   0.60130   0.30660   Biso      1.000     O          -0.545859           
         O16       1.0000    0.96440   0.54820   0.33640   Biso      1.000     O          -0.5827869999999999           
         O17       1.0000    0.37070   0.06214   0.51810   Biso      1.000     O          -0.528896           
         O18       1.0000    0.55090   0.00706   0.65530   Biso      1.000     O          -0.571775           
         O19       1.0000    0.03560   0.04820   0.16360   Biso      1.000     O          -0.5827869999999999           
         O20       1.0000    0.25110   0.10130   0.19340   Biso      1.000     O          -0.545859           
         O21       1.0000    0.71700   0.20243   0.59760   Biso      1.000     O          -0.49677200000000005          
         O22       1.0000    0.98610   0.21647   0.80570   Biso      1.000     O          -0.563896           
         O23       1.0000    0.37070   0.43786   0.01810   Biso      1.000     O          -0.5288970000000001           
         O24       1.0000    0.25110   0.39870   0.69340   Biso      1.000     O          -0.545859           
         Zn1       1.0000    0.80404   0.23785   0.09079   Biso      1.000     Zn          0.357169  
         Zn2       1.0000    0.21902   0.02506   0.34990   Biso      1.000     Zn          0.890345  
         Zn3       1.0000    0.78098   0.52506   0.15010   Biso      1.000     Zn          0.890345  
         Zn4       1.0000    0.21902   0.47494   0.84990   Biso      1.000     Zn          0.8903469999999999  
         Zn5       1.0000    0.19596   0.73785   0.40921   Biso      1.000     Zn          0.357169  
         Zn6       1.0000    0.78098   0.97494   0.65010   Biso      1.000     Zn          0.8903469999999999  
         Zn7       1.0000    0.80404   0.26215   0.59079   Biso      1.000     Zn          0.357169  
         Zn8       1.0000    0.19596   0.76215   0.90921   Biso      1.000     Zn          0.357169 