
##########################################################################
#               Crystallographic Information Format file
#               Produced by PyCifRW module
#
#  This is a CIF file.  CIF has been adopted by the International
#  Union of Crystallography as the standard for data archiving and
#  transmission.
#
#  For information on this file format, follow the CIF links at
#  http://www.iucr.org
##########################################################################

data_image0

_cell_length_a                          8.6697
_cell_length_b                          10.155
_cell_length_c                          13.455
_cell_angle_alpha                       85.39
_cell_angle_beta                        89
_cell_angle_gamma                       77.26
_symmetry_space_group_name_H-M          'P 1'
_symmetry_int_tables_number             1
loop_
  _symmetry_equiv_pos_as_xyz
         'x, y, z' 
loop_
  _atom_site_label
  _atom_site_occupancy
  _atom_site_fract_x
  _atom_site_fract_y
  _atom_site_fract_z
  _atom_site_thermal_displace_type
  _atom_site_B_iso_or_equiv
  _atom_site_type_symbol
  _atom_site_charge
         C1        1.0000    0.41070   0.52550   0.99550   Biso      1.000     C          0.523825  
         C2        1.0000    0.46040   0.16920   0.45710   Biso      1.000     C          0.078111  
         C3        1.0000    0.43840   0.19160   0.56670   Biso      1.000     C          0.53192   
         C4        1.0000    0.48900   0.08810   0.15280   Biso      1.000     C          0.687365  
         C5        1.0000    0.75960   0.14920   0.45970   Biso      1.000     C          0.602051  
         C6        1.0000    0.98210   0.49370   0.55630   Biso      1.000     C          0.5211640000000001  
         C7        1.0000    0.01790   0.50630   0.44370   Biso      1.000     C          0.5211680000000001  
         C8        1.0000    0.82300   0.87730   0.72650   Biso      1.000     C          0.536499  
         C9        1.0000    0.66690   0.86370   0.68560   Biso      1.000     C          0.097084  
         C10       1.0000    0.52600   0.88270   0.73960   Biso      1.000     C          -0.035903           
         C11       1.0000    0.38620   0.87640   0.69070   Biso      1.000     C          -0.08015900000000001          
         C12       1.0000    0.39420   0.84990   0.59070   Biso      1.000     C          -0.029153           
         C13       1.0000    0.53960   0.83080   0.54290   Biso      1.000     C          0.078114  
         C14       1.0000    0.56160   0.80840   0.43330   Biso      1.000     C          0.5319149999999999  
         C15       1.0000    0.51100   0.91190   0.84720   Biso      1.000     C          0.687361  
         C16       1.0000    0.24040   0.85080   0.54030   Biso      1.000     C          0.602062  
         C17       1.0000    0.60580   0.15010   0.40930   Biso      1.000     C          -0.029149           
         C18       1.0000    0.61380   0.12360   0.30930   Biso      1.000     C          -0.080165           
         C19       1.0000    0.58930   0.47450   0.00450   Biso      1.000     C          0.523828  
         C20       1.0000    0.47400   0.11730   0.26040   Biso      1.000     C          -0.035906           
         C21       1.0000    0.33310   0.13630   0.31440   Biso      1.000     C          0.097084  
         C22       1.0000    0.17700   0.12270   0.27350   Biso      1.000     C          0.536479  
         H1        1.0000    0.70980   0.11030   0.27550   Biso      1.000     H          0.151746  
         H2        1.0000    0.29020   0.88970   0.72450   Biso      1.000     H          0.15174400000000002           
         N1        1.0000    0.67190   0.83780   0.58970   Biso      1.000     N          -0.264953           
         N2        1.0000    0.32810   0.16220   0.41030   Biso      1.000     N          -0.26495100000000005          
         O1        1.0000    0.06320   0.13820   0.33580   Biso      1.000     O          -0.48376899999999995          
         O2        1.0000    0.16990   0.09330   0.18740   Biso      1.000     O          -0.352858           
         O3        1.0000    0.46150   0.18590   0.09010   Biso      1.000     O          -0.620595           
         O4        1.0000    0.53810   0.96640   0.13450   Biso      1.000     O          -0.697146           
         O5        1.0000    0.05970   0.39560   0.40420   Biso      1.000     O          -0.428679           
         O6        1.0000    0.84120   0.03730   0.49250   Biso      1.000     O          -0.519119           
         O7        1.0000    0.80740   0.25760   0.46020   Biso      1.000     O          -0.48951300000000003          
         O8        1.0000    0.56070   0.19070   0.61390   Biso      1.000     O          -0.39315500000000003          
         O9        1.0000    0.29820   0.20710   0.59880   Biso      1.000     O          -0.56834  
         O10       1.0000    0.64540   0.36010   0.97520   Biso      1.000     O          -0.534745           
         O11       1.0000    0.66640   0.55060   0.04240   Biso      1.000     O          -0.5512100000000001           
         O12       1.0000    0.70180   0.79290   0.40120   Biso      1.000     O          -0.568346           
         O13       1.0000    0.43930   0.80930   0.38610   Biso      1.000     O          -0.393135           
         O14       1.0000    0.19260   0.74240   0.53980   Biso      1.000     O          -0.48952399999999996          
         O15       1.0000    0.15880   0.96270   0.50750   Biso      1.000     O          -0.519125           
         O16       1.0000    0.46190   0.03360   0.86550   Biso      1.000     O          -0.697142           
         O17       1.0000    0.53850   0.81410   0.90990   Biso      1.000     O          -0.620596           
         O18       1.0000    0.83010   0.90670   0.81260   Biso      1.000     O          -0.35286  
         O19       1.0000    0.93680   0.86180   0.66420   Biso      1.000     O          -0.483766           
         O20       1.0000    0.99340   0.37940   0.59680   Biso      1.000     O          -0.424921           
         O21       1.0000    0.94030   0.60440   0.59580   Biso      1.000     O          -0.42867799999999995          
         O22       1.0000    0.33360   0.44940   0.95760   Biso      1.000     O          -0.5512050000000001           
         O23       1.0000    0.35460   0.63990   0.02480   Biso      1.000     O          -0.534751           
         O24       1.0000    0.00660   0.62060   0.40320   Biso      1.000     O          -0.42492299999999994          
         Yb1       1.0000    0.53301   0.76756   0.07716   Biso      1.000     Yb          1.4858360000000002  
         Yb2       1.0000    0.91898   0.80670   0.49736   Biso      1.000     Yb          1.2586469999999998  
         Yb3       1.0000    0.46699   0.23244   0.92284   Biso      1.000     Yb          1.485802  
         Yb4       1.0000    0.08102   0.19330   0.50264   Biso      1.000     Yb          1.258634 