
##########################################################################
#               Crystallographic Information Format file
#               Produced by PyCifRW module
#
#  This is a CIF file.  CIF has been adopted by the International
#  Union of Crystallography as the standard for data archiving and
#  transmission.
#
#  For information on this file format, follow the CIF links at
#  http://www.iucr.org
##########################################################################

data_image0

_cell_length_a                          9.1586
_cell_length_b                          9.7969
_cell_length_c                          9.873
_cell_angle_alpha                       77.598
_cell_angle_beta                        89.947
_cell_angle_gamma                       88.06
_symmetry_space_group_name_H-M          'P 1'
_symmetry_int_tables_number             1
loop_
  _symmetry_equiv_pos_as_xyz
         'x, y, z' 
loop_
  _atom_site_label
  _atom_site_occupancy
  _atom_site_fract_x
  _atom_site_fract_y
  _atom_site_fract_z
  _atom_site_thermal_displace_type
  _atom_site_B_iso_or_equiv
  _atom_site_type_symbol
  _atom_site_charge
         C1        1.0000    0.02840   0.47310   0.56220   Biso      1.000     C          -0.177619           
         C2        1.0000    0.52600   0.06470   0.98190   Biso      1.000     C          -0.184136           
         C3        1.0000    0.45190   0.18820   0.01930   Biso      1.000     C          0.674533  
         C4        1.0000    0.48380   0.44430   0.47740   Biso      1.000     C          -0.180456           
         C5        1.0000    0.40620   0.45260   0.34190   Biso      1.000     C          0.658785  
         C6        1.0000    0.02250   0.04660   0.03330   Biso      1.000     C          -0.176545           
         C7        1.0000    0.94990   0.18910   0.01520   Biso      1.000     C          0.670072  
         C8        1.0000    0.98480   0.52570   0.68930   Biso      1.000     C          0.660025  
         C9        1.0000    0.47400   0.93530   0.01810   Biso      1.000     C          -0.184119           
         C10       1.0000    0.54810   0.81180   0.98070   Biso      1.000     C          0.674531  
         C11       1.0000    0.51620   0.55570   0.52260   Biso      1.000     C          -0.180413           
         C12       1.0000    0.59380   0.54740   0.65810   Biso      1.000     C          0.658781  
         C13       1.0000    0.97750   0.95340   0.96670   Biso      1.000     C          -0.176504           
         C14       1.0000    0.97160   0.52690   0.43780   Biso      1.000     C          -0.177581           
         C15       1.0000    0.01520   0.47430   0.31070   Biso      1.000     C          0.660021  
         C16       1.0000    0.05010   0.81090   0.98480   Biso      1.000     C          0.670068  
         H1        1.0000    0.51030   0.35480   0.53230   Biso      1.000     H          0.140082  
         H2        1.0000    0.72860   0.54830   0.05040   Biso      1.000     H          0.404913  
         H3        1.0000    0.61390   0.07750   0.93020   Biso      1.000     H          0.13875   
         H4        1.0000    0.89650   0.97680   0.90510   Biso      1.000     H          0.137251  
         H5        1.0000    0.48970   0.64520   0.46770   Biso      1.000     H          0.140079  
         H6        1.0000    0.90070   0.60140   0.42870   Biso      1.000     H          0.140646  
         H7        1.0000    0.27140   0.45170   0.94960   Biso      1.000     H          0.404913  
         H8        1.0000    0.09930   0.39860   0.57130   Biso      1.000     H          0.140649  
         H9        1.0000    0.10350   0.02320   0.09490   Biso      1.000     H          0.137254  
         H10       1.0000    0.38610   0.92250   0.06980   Biso      1.000     H          0.138749  
         O1        1.0000    0.90300   0.63360   0.67180   Biso      1.000     O          -0.578052           
         O2        1.0000    0.67140   0.82920   0.92490   Biso      1.000     O          -0.554253           
         O3        1.0000    0.00530   0.27580   0.07600   Biso      1.000     O          -0.579478           
         O4        1.0000    0.83500   0.21090   0.94150   Biso      1.000     O          -0.547857           
         O5        1.0000    0.39850   0.34180   0.29920   Biso      1.000     O          -0.57963  
         O6        1.0000    0.35450   0.57280   0.28400   Biso      1.000     O          -0.572117           
         O7        1.0000    0.03300   0.45710   0.80370   Biso      1.000     O          -0.569019           
         O8        1.0000    0.22130   0.47020   0.03430   Biso      1.000     O          -0.879673           
         O9        1.0000    0.48600   0.69550   0.00290   Biso      1.000     O          -0.566301           
         O10       1.0000    0.64550   0.42720   0.71600   Biso      1.000     O          -0.572116           
         O11       1.0000    0.51400   0.30450   0.99710   Biso      1.000     O          -0.566302           
         O12       1.0000    0.16500   0.78910   0.05850   Biso      1.000     O          -0.547856           
         O13       1.0000    0.99470   0.72420   0.92400   Biso      1.000     O          -0.579479           
         O14       1.0000    0.09700   0.36640   0.32820   Biso      1.000     O          -0.578052           
         O15       1.0000    0.96700   0.54290   0.19630   Biso      1.000     O          -0.56902  
         O16       1.0000    0.77870   0.52980   0.96570   Biso      1.000     O          -0.879674           
         O17       1.0000    0.32860   0.17080   0.07510   Biso      1.000     O          -0.554253           
         O18       1.0000    0.60150   0.65820   0.70080   Biso      1.000     O          -0.579631           
         Zn1       1.0000    0.00000   0.50000   0.00000   Biso      1.000     Zn          0.9866    
         Zn2       1.0000    0.30280   0.62976   0.08942   Biso      1.000     Zn          0.985098  
         Zn3       1.0000    0.22020   0.28676   0.19110   Biso      1.000     Zn          1.041619  
         Zn4       1.0000    0.69720   0.37024   0.91058   Biso      1.000     Zn          0.985098  
         Zn5       1.0000    0.77980   0.71324   0.80890   Biso      1.000     Zn          1.041619 