
##########################################################################
#               Crystallographic Information Format file
#               Produced by PyCifRW module
#
#  This is a CIF file.  CIF has been adopted by the International
#  Union of Crystallography as the standard for data archiving and
#  transmission.
#
#  For information on this file format, follow the CIF links at
#  http://www.iucr.org
##########################################################################

data_image0

_cell_length_a                          8.38
_cell_length_b                          20.9662
_cell_length_c                          13.0999
_cell_angle_alpha                       90
_cell_angle_beta                        95.038
_cell_angle_gamma                       90
_symmetry_space_group_name_H-M          'P 1'
_symmetry_int_tables_number             1
loop_
  _symmetry_equiv_pos_as_xyz
         'x, y, z' 
loop_
  _atom_site_label
  _atom_site_occupancy
  _atom_site_fract_x
  _atom_site_fract_y
  _atom_site_fract_z
  _atom_site_thermal_displace_type
  _atom_site_B_iso_or_equiv
  _atom_site_type_symbol
  _atom_site_charge
         C1        1.0000    0.30400   0.68630   0.52060   Biso      1.000     C          0.5862430000000001  
         C2        1.0000    0.32840   0.40150   0.48480   Biso      1.000     C          -0.062030999999999996         
         C3        1.0000    0.58530   0.56610   0.58320   Biso      1.000     C          -0.07721900000000001          
         C4        1.0000    0.32150   0.42270   0.58540   Biso      1.000     C          -0.07409299999999999          
         C5        1.0000    0.40110   0.47710   0.61720   Biso      1.000     C          -0.055697           
         C6        1.0000    0.57740   0.59090   0.68660   Biso      1.000     C          0.465413  
         C7        1.0000    0.20470   0.89460   0.88440   Biso      1.000     C          -0.094213           
         C8        1.0000    0.38960   0.50190   0.72380   Biso      1.000     C          0.44847700000000007           
         C9        1.0000    0.44460   0.58820   0.84440   Biso      1.000     C          0.276179  
         C10       1.0000    0.49880   0.51080   0.55130   Biso      1.000     C          0.020944  
         C11       1.0000    0.04000   0.52560   0.48550   Biso      1.000     C          -0.110306           
         C12       1.0000    0.20890   0.62910   0.47940   Biso      1.000     C          -0.123243           
         C13       1.0000    0.53000   0.92640   0.43600   Biso      1.000     C          -0.190296           
         C14       1.0000    0.30100   0.83440   0.42980   Biso      1.000     C          0.12984500000000002           
         C15       1.0000    0.49510   0.89270   0.52270   Biso      1.000     C          0.116666  
         C16       1.0000    0.32710   0.86500   0.34060   Biso      1.000     C          -0.19192  
         C17       1.0000    0.27720   0.62930   0.28830   Biso      1.000     C          0.614855  
         C18       1.0000    0.32840   0.09850   0.98480   Biso      1.000     C          -0.062030999999999996         
         C19       1.0000    0.58530   0.93390   0.08320   Biso      1.000     C          -0.07721900000000001          
         C20       1.0000    0.32150   0.07730   0.08540   Biso      1.000     C          -0.07409299999999999          
         C21       1.0000    0.27720   0.87070   0.78830   Biso      1.000     C          0.614858  
         C22       1.0000    0.32710   0.63500   0.84060   Biso      1.000     C          -0.19192599999999999          
         C23       1.0000    0.49510   0.60730   0.02270   Biso      1.000     C          0.116666  
         C24       1.0000    0.30100   0.66560   0.92980   Biso      1.000     C          0.129852  
         C25       1.0000    0.96000   0.47440   0.51450   Biso      1.000     C          -0.110273           
         C26       1.0000    0.79110   0.37090   0.52060   Biso      1.000     C          -0.123243           
         C27       1.0000    0.47000   0.07360   0.56400   Biso      1.000     C          -0.190296           
         C28       1.0000    0.69900   0.16560   0.57020   Biso      1.000     C          0.12984500000000002           
         C29       1.0000    0.50490   0.10730   0.47730   Biso      1.000     C          0.116666  
         C30       1.0000    0.67290   0.13500   0.65940   Biso      1.000     C          -0.19192  
         C31       1.0000    0.72280   0.37070   0.71170   Biso      1.000     C          0.6148560000000001  
         C32       1.0000    0.67160   0.90150   0.01520   Biso      1.000     C          -0.062026           
         C33       1.0000    0.41470   0.06610   0.91680   Biso      1.000     C          -0.077214           
         C34       1.0000    0.40110   0.02290   0.11720   Biso      1.000     C          -0.055697           
         C35       1.0000    0.67850   0.92270   0.91460   Biso      1.000     C          -0.07409299999999999          
         C36       1.0000    0.42260   0.09090   0.81340   Biso      1.000     C          0.465413  
         C37       1.0000    0.79530   0.39460   0.61560   Biso      1.000     C          -0.094186           
         C38       1.0000    0.61040   0.00190   0.77620   Biso      1.000     C          0.44847700000000007           
         C39       1.0000    0.55540   0.08820   0.65560   Biso      1.000     C          0.276181  
         C40       1.0000    0.50120   0.01080   0.94870   Biso      1.000     C          0.020944  
         C41       1.0000    0.30400   0.81370   0.02060   Biso      1.000     C          0.586241  
         C42       1.0000    0.04000   0.97440   0.98550   Biso      1.000     C          -0.110306           
         C43       1.0000    0.20890   0.87090   0.97940   Biso      1.000     C          -0.123215           
         C44       1.0000    0.53000   0.57360   0.93600   Biso      1.000     C          -0.19029200000000002          
         C45       1.0000    0.59890   0.97710   0.88280   Biso      1.000     C          -0.055698000000000004         
         C46       1.0000    0.57740   0.90910   0.18660   Biso      1.000     C          0.465413  
         C47       1.0000    0.69600   0.31370   0.47940   Biso      1.000     C          0.586244  
         C48       1.0000    0.38960   0.99810   0.22380   Biso      1.000     C          0.44847700000000007           
         C49       1.0000    0.79110   0.12910   0.02060   Biso      1.000     C          -0.123243           
         C50       1.0000    0.96000   0.02560   0.01450   Biso      1.000     C          -0.110273           
         C51       1.0000    0.69900   0.33440   0.07020   Biso      1.000     C          0.12984600000000002           
         C52       1.0000    0.50490   0.39270   0.97730   Biso      1.000     C          0.116666  
         C53       1.0000    0.20470   0.60540   0.38440   Biso      1.000     C          -0.094186           
         C54       1.0000    0.69600   0.18630   0.97940   Biso      1.000     C          0.586244  
         C55       1.0000    0.67290   0.36500   0.15940   Biso      1.000     C          -0.19192  
         C56       1.0000    0.72280   0.12930   0.21170   Biso      1.000     C          0.614855  
         C57       1.0000    0.67160   0.59850   0.51520   Biso      1.000     C          -0.062026           
         C58       1.0000    0.67850   0.57730   0.41460   Biso      1.000     C          -0.07409299999999999          
         C59       1.0000    0.59890   0.52290   0.38280   Biso      1.000     C          -0.055698000000000004         
         C60       1.0000    0.49880   0.98920   0.05130   Biso      1.000     C          0.020943  
         C61       1.0000    0.41470   0.43390   0.41680   Biso      1.000     C          -0.077214           
         C62       1.0000    0.79530   0.10540   0.11560   Biso      1.000     C          -0.094186           
         C63       1.0000    0.44460   0.91180   0.34440   Biso      1.000     C          0.276181  
         C64       1.0000    0.50120   0.48920   0.44870   Biso      1.000     C          0.020943  
         C65       1.0000    0.42260   0.40910   0.31340   Biso      1.000     C          0.465413  
         C66       1.0000    0.55540   0.41180   0.15560   Biso      1.000     C          0.27617800000000003           
         C67       1.0000    0.47000   0.42640   0.06400   Biso      1.000     C          -0.19029200000000002          
         C68       1.0000    0.61040   0.49810   0.27620   Biso      1.000     C          0.44847700000000007           
         H1        1.0000    0.73690   0.90000   0.86950   Biso      1.000     H          0.127396  
         H2        1.0000    0.60860   0.54210   0.93970   Biso      1.000     H          0.157278  
         H3        1.0000    0.72650   0.86460   0.03660   Biso      1.000     H          0.121545  
         H4        1.0000    0.73200   0.14510   0.72070   Biso      1.000     H          0.149359  
         H5        1.0000    0.77740   0.30300   0.07230   Biso      1.000     H          0.105551  
         H6        1.0000    0.73200   0.35490   0.22070   Biso      1.000     H          0.149359  
         H7        1.0000    0.44770   0.09780   0.41510   Biso      1.000     H          0.10322   
         H8        1.0000    0.77740   0.19700   0.57230   Biso      1.000     H          0.105551  
         H9        1.0000    0.26800   0.64510   0.77930   Biso      1.000     H          0.149359  
         H10       1.0000    0.44770   0.40220   0.91510   Biso      1.000     H          0.10322   
         H11       1.0000    0.39140   0.04210   0.56030   Biso      1.000     H          0.157278  
         H12       1.0000    0.73690   0.60000   0.36950   Biso      1.000     H          0.127396  
         H13       1.0000    0.27350   0.36460   0.46340   Biso      1.000     H          0.121545  
         H14       1.0000    0.72650   0.63540   0.53660   Biso      1.000     H          0.121545  
         H15       1.0000    0.22260   0.69700   0.92770   Biso      1.000     H          0.105551  
         H16       1.0000    0.55230   0.59780   0.08490   Biso      1.000     H          0.10322   
         H17       1.0000    0.39140   0.45790   0.06030   Biso      1.000     H          0.157278  
         H18       1.0000    0.26310   0.10000   0.13050   Biso      1.000     H          0.127396  
         H19       1.0000    0.27350   0.13540   0.96340   Biso      1.000     H          0.121545  
         H20       1.0000    0.26800   0.85490   0.27930   Biso      1.000     H          0.149359  
         H21       1.0000    0.55230   0.90220   0.58490   Biso      1.000     H          0.10322   
         H22       1.0000    0.22260   0.80300   0.42770   Biso      1.000     H          0.10555199999999999           
         H23       1.0000    0.60860   0.95790   0.43970   Biso      1.000     H          0.157278  
         H24       1.0000    0.26310   0.40000   0.63050   Biso      1.000     H          0.127396  
         N1        1.0000    0.38290   0.84750   0.52030   Biso      1.000     N          -0.241101           
         N2        1.0000    0.47840   0.94300   0.25070   Biso      1.000     N          -0.265173           
         N3        1.0000    0.52160   0.44300   0.24930   Biso      1.000     N          -0.265173           
         N4        1.0000    0.61710   0.34750   0.97970   Biso      1.000     N          -0.241102           
         N5        1.0000    0.61710   0.15250   0.47970   Biso      1.000     N          -0.241101           
         N6        1.0000    0.52160   0.05700   0.74930   Biso      1.000     N          -0.265173           
         N7        1.0000    0.38290   0.65250   0.02030   Biso      1.000     N          -0.241102           
         N8        1.0000    0.47840   0.55700   0.75070   Biso      1.000     N          -0.265173           
         O1        1.0000    0.57510   0.29720   0.51800   Biso      1.000     O          -0.5270050000000001           
         O2        1.0000    0.34250   0.36570   0.27690   Biso      1.000     O          -0.443713           
         O3        1.0000    0.69020   0.52360   0.21530   Biso      1.000     O          -0.45865200000000006          
         O4        1.0000    0.57510   0.20280   0.01800   Biso      1.000     O          -0.5270060000000001           
         O5        1.0000    0.73470   0.18800   0.22900   Biso      1.000     O          -0.5196390000000001           
         O6        1.0000    0.66490   0.08950   0.26600   Biso      1.000     O          -0.550566           
         O7        1.0000    0.24760   0.71270   0.59780   Biso      1.000     O          -0.564463           
         O8        1.0000    0.75240   0.21270   0.90220   Biso      1.000     O          -0.564463           
         O9        1.0000    0.33510   0.58950   0.23400   Biso      1.000     O          -0.550566           
         O10       1.0000    0.24760   0.78730   0.09780   Biso      1.000     O          -0.5644640000000001           
         O11       1.0000    0.33510   0.91050   0.73400   Biso      1.000     O          -0.550566           
         O12       1.0000    0.26530   0.68800   0.27100   Biso      1.000     O          -0.5196390000000001           
         O13       1.0000    0.30980   0.02360   0.28470   Biso      1.000     O          -0.45865200000000006          
         O14       1.0000    0.30980   0.47640   0.78470   Biso      1.000     O          -0.45865200000000006          
         O15       1.0000    0.26530   0.81200   0.77100   Biso      1.000     O          -0.5196390000000001           
         O16       1.0000    0.34250   0.13430   0.77690   Biso      1.000     O          -0.443713           
         O17       1.0000    0.42490   0.70280   0.48200   Biso      1.000     O          -0.5270050000000001           
         O18       1.0000    0.75240   0.28730   0.40220   Biso      1.000     O          -0.564463           
         O19       1.0000    0.66490   0.41050   0.76600   Biso      1.000     O          -0.550566           
         O20       1.0000    0.73470   0.31200   0.72900   Biso      1.000     O          -0.5196390000000001           
         O21       1.0000    0.69020   0.97640   0.71530   Biso      1.000     O          -0.45865200000000006          
         O22       1.0000    0.65750   0.86570   0.22310   Biso      1.000     O          -0.443712           
         O23       1.0000    0.65750   0.63430   0.72310   Biso      1.000     O          -0.443713           
         O24       1.0000    0.42490   0.79720   0.98200   Biso      1.000     O          -0.5270050000000001           
         S1        1.0000    0.89920   0.08877   0.93084   Biso      1.000     S          0.107918  
         S2        1.0000    0.90540   0.46472   0.64046   Biso      1.000     S          0.12376199999999998           
         S3        1.0000    0.89920   0.41123   0.43084   Biso      1.000     S          0.107918  
         S4        1.0000    0.90540   0.03528   0.14046   Biso      1.000     S          0.12376199999999998           
         S5        1.0000    0.10080   0.58877   0.56916   Biso      1.000     S          0.107922  
         S6        1.0000    0.10080   0.91123   0.06916   Biso      1.000     S          0.107919  
         S7        1.0000    0.09460   0.53528   0.35954   Biso      1.000     S          0.12376500000000001           
         S8        1.0000    0.09460   0.96472   0.85954   Biso      1.000     S          0.123768  
         Zn1       1.0000    0.63770   0.20894   0.35556   Biso      1.000     Zn          0.894623  
         Zn2       1.0000    0.36230   0.70894   0.14444   Biso      1.000     Zn          0.894623  
         Zn3       1.0000    0.36230   0.79106   0.64444   Biso      1.000     Zn          0.8946219999999999  
         Zn4       1.0000    0.63770   0.29106   0.85556   Biso      1.000     Zn          0.894623 