
##########################################################################
#               Crystallographic Information Format file
#               Produced by PyCifRW module
#
#  This is a CIF file.  CIF has been adopted by the International
#  Union of Crystallography as the standard for data archiving and
#  transmission.
#
#  For information on this file format, follow the CIF links at
#  http://www.iucr.org
##########################################################################

data_image0

_cell_length_a                          13.261
_cell_length_b                          15.134
_cell_length_c                          15.547
_cell_angle_alpha                       90
_cell_angle_beta                        93.449
_cell_angle_gamma                       90
_symmetry_space_group_name_H-M          'P 1'
_symmetry_int_tables_number             1
loop_
  _symmetry_equiv_pos_as_xyz
         'x, y, z' 
loop_
  _atom_site_label
  _atom_site_occupancy
  _atom_site_fract_x
  _atom_site_fract_y
  _atom_site_fract_z
  _atom_site_thermal_displace_type
  _atom_site_B_iso_or_equiv
  _atom_site_type_symbol
  _atom_site_charge
         C1        1.0000    0.23890   0.59760   0.83250   Biso      1.000     C          -0.177172           
         C2        1.0000    0.83620   0.93750   0.20570   Biso      1.000     C          0.212639  
         C3        1.0000    0.67960   0.84380   0.37380   Biso      1.000     C          0.076362  
         C4        1.0000    0.73890   0.90240   0.33250   Biso      1.000     C          -0.177114           
         C5        1.0000    0.77480   0.87800   0.25340   Biso      1.000     C          0.111025  
         C6        1.0000    0.74940   0.79530   0.22380   Biso      1.000     C          -0.159865           
         C7        1.0000    0.68890   0.74200   0.26950   Biso      1.000     C          0.089103  
         C8        1.0000    0.23680   0.82320   0.11340   Biso      1.000     C          0.210765  
         C9        1.0000    0.41410   0.81040   0.30580   Biso      1.000     C          0.06911   
         C10       1.0000    0.34560   0.84440   0.24530   Biso      1.000     C          -0.159781           
         C11       1.0000    0.27480   0.62200   0.75340   Biso      1.000     C          0.111198  
         C12       1.0000    0.91640   0.82290   0.73960   Biso      1.000     C          0.095539  
         C13       1.0000    0.84730   0.79440   0.67620   Biso      1.000     C          -0.166462           
         C14       1.0000    0.34730   0.70560   0.17620   Biso      1.000     C          -0.166419           
         C15       1.0000    0.81120   0.71010   0.67740   Biso      1.000     C          0.112267  
         C16       1.0000    0.84560   0.65560   0.74530   Biso      1.000     C          -0.159856           
         C17       1.0000    0.41640   0.67710   0.23960   Biso      1.000     C          0.095616  
         C18       1.0000    0.91410   0.68960   0.80580   Biso      1.000     C          0.069101  
         C19       1.0000    0.17960   0.65620   0.87380   Biso      1.000     C          0.07622   
         C20       1.0000    0.73680   0.67680   0.61340   Biso      1.000     C          0.210709  
         C21       1.0000    0.18890   0.75800   0.76950   Biso      1.000     C          0.088961  
         C22       1.0000    0.31120   0.78990   0.17740   Biso      1.000     C          0.11219   
         C23       1.0000    0.08360   0.17710   0.26040   Biso      1.000     C          0.095667  
         C24       1.0000    0.15270   0.20560   0.32380   Biso      1.000     C          -0.166567           
         C25       1.0000    0.18880   0.28990   0.32260   Biso      1.000     C          0.112094  
         C26       1.0000    0.58360   0.32290   0.76040   Biso      1.000     C          0.095634  
         C27       1.0000    0.66380   0.43750   0.29430   Biso      1.000     C          0.212421  
         C28       1.0000    0.65270   0.29440   0.82380   Biso      1.000     C          -0.166378           
         C29       1.0000    0.82040   0.34380   0.12620   Biso      1.000     C          0.076338  
         C30       1.0000    0.68880   0.21010   0.82260   Biso      1.000     C          0.112164  
         C31       1.0000    0.65440   0.15560   0.75470   Biso      1.000     C          -0.159866           
         C32       1.0000    0.76110   0.40240   0.16750   Biso      1.000     C          -0.177195           
         C33       1.0000    0.58590   0.18960   0.69420   Biso      1.000     C          0.069164  
         C34       1.0000    0.72520   0.37800   0.24660   Biso      1.000     C          0.111237  
         C35       1.0000    0.76320   0.17680   0.88660   Biso      1.000     C          0.210967  
         C36       1.0000    0.31110   0.25800   0.73050   Biso      1.000     C          0.088968  
         C37       1.0000    0.75060   0.29530   0.27620   Biso      1.000     C          -0.159847           
         C38       1.0000    0.25060   0.20470   0.77620   Biso      1.000     C          -0.159727           
         C39       1.0000    0.81110   0.24200   0.23050   Biso      1.000     C          0.089033  
         C40       1.0000    0.22520   0.12200   0.74660   Biso      1.000     C          0.111141  
         C41       1.0000    0.26110   0.09760   0.66750   Biso      1.000     C          -0.177271           
         C42       1.0000    0.26320   0.32320   0.38660   Biso      1.000     C          0.210927  
         C43       1.0000    0.32040   0.15620   0.62620   Biso      1.000     C          0.076229  
         C44       1.0000    0.08590   0.31040   0.19420   Biso      1.000     C          0.069431  
         C45       1.0000    0.16380   0.06250   0.79430   Biso      1.000     C          0.212427  
         C46       1.0000    0.15440   0.34440   0.25470   Biso      1.000     C          -0.159979           
         C47       1.0000    0.33620   0.56250   0.70570   Biso      1.000     C          0.212339  
         C48       1.0000    0.24940   0.70470   0.72380   Biso      1.000     C          -0.15991  
         Cu1       1.0000    0.94971   0.18875   0.10240   Biso      1.000     Cu          0.544326  
         Cu2       1.0000    0.00000   0.00000   0.00000   Biso      1.000     Cu          0.619797  
         Cu3       1.0000    0.44971   0.31125   0.60240   Biso      1.000     Cu          0.542513  
         Cu4       1.0000    0.05029   0.81125   0.89760   Biso      1.000     Cu          0.542689  
         Cu5       1.0000    0.50000   0.50000   0.50000   Biso      1.000     Cu          0.614642  
         Cu6       1.0000    0.55029   0.68875   0.39760   Biso      1.000     Cu          0.542533  
         H1        1.0000    0.67090   0.68710   0.24660   Biso      1.000     H          0.089692  
         H2        1.0000    0.77350   0.77520   0.17230   Biso      1.000     H          0.139288  
         H3        1.0000    0.75490   0.95720   0.35670   Biso      1.000     H          0.138105  
         H4        1.0000    0.65550   0.86150   0.42600   Biso      1.000     H          0.085332  
         H5        1.0000    0.25490   0.54280   0.85670   Biso      1.000     H          0.138141  
         H6        1.0000    0.05970   0.11940   0.26250   Biso      1.000     H          0.100204  
         H7        1.0000    0.17490   0.16720   0.36770   Biso      1.000     H          0.13561   
         H8        1.0000    0.17730   0.40220   0.25070   Biso      1.000     H          0.140565  
         H9        1.0000    0.34450   0.13850   0.57400   Biso      1.000     H          0.085283  
         H10       1.0000    0.06330   0.34690   0.14890   Biso      1.000     H          0.090351  
         H11       1.0000    0.24510   0.04280   0.64330   Biso      1.000     H          0.138037  
         H12       1.0000    0.82910   0.18710   0.25340   Biso      1.000     H          0.089572  
         H13       1.0000    0.32910   0.31290   0.75340   Biso      1.000     H          0.08967   
         H14       1.0000    0.72650   0.27520   0.32770   Biso      1.000     H          0.139287  
         H15       1.0000    0.56330   0.15310   0.64890   Biso      1.000     H          0.090484  
         H16       1.0000    0.67730   0.09780   0.75070   Biso      1.000     H          0.140655  
         H17       1.0000    0.74510   0.45720   0.14330   Biso      1.000     H          0.138047  
         H18       1.0000    0.67490   0.33280   0.86770   Biso      1.000     H          0.135751  
         H19       1.0000    0.84450   0.36150   0.07400   Biso      1.000     H          0.085302  
         H20       1.0000    0.55970   0.38060   0.76250   Biso      1.000     H          0.100421  
         H21       1.0000    0.22650   0.22480   0.82770   Biso      1.000     H          0.139471  
         H22       1.0000    0.43670   0.84690   0.35110   Biso      1.000     H          0.090484  
         H23       1.0000    0.27350   0.72480   0.67230   Biso      1.000     H          0.139291  
         H24       1.0000    0.32270   0.90220   0.24930   Biso      1.000     H          0.140815  
         H25       1.0000    0.17090   0.81290   0.74660   Biso      1.000     H          0.089658  
         H26       1.0000    0.44030   0.61940   0.23750   Biso      1.000     H          0.100469  
         H27       1.0000    0.15550   0.63850   0.92600   Biso      1.000     H          0.085305  
         H28       1.0000    0.93670   0.65310   0.85110   Biso      1.000     H          0.090484  
         H29       1.0000    0.82510   0.83280   0.63230   Biso      1.000     H          0.135754  
         H30       1.0000    0.94030   0.88060   0.73750   Biso      1.000     H          0.100432  
         H31       1.0000    0.32510   0.66720   0.13230   Biso      1.000     H          0.135788  
         H32       1.0000    0.82270   0.59780   0.74930   Biso      1.000     H          0.140724  
         N1        1.0000    0.38400   0.58730   0.63600   Biso      1.000     N          -0.248523           
         N2        1.0000    0.15420   0.73520   0.84540   Biso      1.000     N          -0.199212           
         N3        1.0000    0.69180   0.59800   0.61910   Biso      1.000     N          -0.257544           
         N4        1.0000    0.42750   0.51420   0.60960   Biso      1.000     N          -0.021975           
         N5        1.0000    0.62860   0.59300   0.54870   Biso      1.000     N          -0.059545           
         N6        1.0000    0.63970   0.66670   0.50460   Biso      1.000     N          -0.041114           
         N7        1.0000    0.70570   0.72140   0.54210   Biso      1.000     N          -0.268059           
         N8        1.0000    0.95020   0.77090   0.80400   Biso      1.000     N          -0.197483           
         N9        1.0000    0.40680   0.44690   0.65990   Biso      1.000     N          -0.088804           
         N10       1.0000    0.29430   0.27860   0.45790   Biso      1.000     N          -0.268088           
         N11       1.0000    0.34830   0.47580   0.72190   Biso      1.000     N          -0.279699           
         N12       1.0000    0.36030   0.33330   0.49540   Biso      1.000     N          -0.041171           
         N13       1.0000    0.37140   0.40700   0.45130   Biso      1.000     N          -0.059802           
         N14       1.0000    0.30820   0.40200   0.38090   Biso      1.000     N          -0.257624           
         N15       1.0000    0.84580   0.26480   0.15460   Biso      1.000     N          -0.1994   
         N16       1.0000    0.61600   0.41270   0.36400   Biso      1.000     N          -0.248345           
         N17       1.0000    0.57250   0.48580   0.39040   Biso      1.000     N          -0.021948           
         N18       1.0000    0.59320   0.55310   0.34010   Biso      1.000     N          -0.088951           
         N19       1.0000    0.65170   0.52420   0.27810   Biso      1.000     N          -0.279858           
         N20       1.0000    0.55500   0.38290   0.55010   Biso      1.000     N          -0.54852  
         N21       1.0000    0.64260   0.36630   0.55780   Biso      1.000     N          0.45626   
         N22       1.0000    0.72510   0.34830   0.56430   Biso      1.000     N          -0.328236           
         N23       1.0000    0.04980   0.22910   0.19600   Biso      1.000     N          -0.197608           
         N24       1.0000    0.44500   0.61710   0.44990   Biso      1.000     N          -0.548446           
         N25       1.0000    0.79430   0.22140   0.95790   Biso      1.000     N          -0.267689           
         N26       1.0000    0.54980   0.27090   0.69600   Biso      1.000     N          -0.197394           
         N27       1.0000    0.14260   0.13370   0.05780   Biso      1.000     N          0.455499  
         N28       1.0000    0.05500   0.11710   0.05010   Biso      1.000     N          -0.55316  
         N29       1.0000    0.15170   0.97580   0.77810   Biso      1.000     N          -0.279754           
         N30       1.0000    0.09320   0.94690   0.84010   Biso      1.000     N          -0.089077           
         N31       1.0000    0.07250   0.01420   0.89040   Biso      1.000     N          -0.022482           
         N32       1.0000    0.11600   0.08730   0.86400   Biso      1.000     N          -0.247148           
         N33       1.0000    0.34580   0.23520   0.65460   Biso      1.000     N          -0.199172           
         N34       1.0000    0.45020   0.72910   0.30400   Biso      1.000     N          -0.197461           
         N35       1.0000    0.20570   0.77860   0.04210   Biso      1.000     N          -0.26769  
         N36       1.0000    0.13970   0.83330   0.00460   Biso      1.000     N          -0.041241           
         N37       1.0000    0.12860   0.90700   0.04870   Biso      1.000     N          -0.059273           
         N38       1.0000    0.35740   0.63370   0.44220   Biso      1.000     N          0.456291  
         N39       1.0000    0.19180   0.90200   0.11910   Biso      1.000     N          -0.256745           
         N40       1.0000    0.92750   0.98580   0.10960   Biso      1.000     N          -0.021517           
         N41       1.0000    0.90680   0.05310   0.15990   Biso      1.000     N          -0.088548           
         N42       1.0000    0.84830   0.02420   0.22190   Biso      1.000     N          -0.278775           
         N43       1.0000    0.94500   0.88290   0.94990   Biso      1.000     N          -0.549369           
         N44       1.0000    0.85740   0.86630   0.94220   Biso      1.000     N          0.456432  
         N45       1.0000    0.77490   0.84830   0.93570   Biso      1.000     N          -0.327524           
         N46       1.0000    0.80820   0.09800   0.88090   Biso      1.000     N          -0.257409           
         N47       1.0000    0.87140   0.09300   0.95130   Biso      1.000     N          -0.06022  
         N48       1.0000    0.86030   0.16670   0.99540   Biso      1.000     N          -0.040896           
         N49       1.0000    0.27490   0.65170   0.43570   Biso      1.000     N          -0.32802  
         N50       1.0000    0.22510   0.15170   0.06430   Biso      1.000     N          -0.335188           
         N51       1.0000    0.88400   0.91270   0.13600   Biso      1.000     N          -0.248261           
         N52       1.0000    0.65420   0.76480   0.34540   Biso      1.000     N          -0.199065 