
##########################################################################
#               Crystallographic Information Format file
#               Produced by PyCifRW module
#
#  This is a CIF file.  CIF has been adopted by the International
#  Union of Crystallography as the standard for data archiving and
#  transmission.
#
#  For information on this file format, follow the CIF links at
#  http://www.iucr.org
##########################################################################

data_image0

_cell_length_a                          13.111
_cell_length_b                          14.791
_cell_length_c                          15.671
_cell_angle_alpha                       90
_cell_angle_beta                        92.625
_cell_angle_gamma                       90
_symmetry_space_group_name_H-M          'P 1'
_symmetry_int_tables_number             1
loop_
  _symmetry_equiv_pos_as_xyz
         'x, y, z' 
loop_
  _atom_site_label
  _atom_site_occupancy
  _atom_site_fract_x
  _atom_site_fract_y
  _atom_site_fract_z
  _atom_site_thermal_displace_type
  _atom_site_B_iso_or_equiv
  _atom_site_type_symbol
  _atom_site_charge
         C1        1.0000    0.26680   0.59000   0.66580   Biso      1.000     C          -0.1734   
         C2        1.0000    0.66400   0.94450   0.29139   Biso      1.000     C          0.20853400000000002           
         C3        1.0000    0.83230   0.85360   0.12550   Biso      1.000     C          0.07685499999999999           
         C4        1.0000    0.76680   0.91000   0.16580   Biso      1.000     C          -0.17358099999999999          
         C5        1.0000    0.73160   0.88650   0.24410   Biso      1.000     C          0.109398  
         C6        1.0000    0.76470   0.80490   0.27920   Biso      1.000     C          -0.15895  
         C7        1.0000    0.83070   0.75190   0.23480   Biso      1.000     C          0.086129  
         C8        1.0000    0.28670   0.82720   0.39400   Biso      1.000     C          0.21464699999999998           
         C9        1.0000    0.10080   0.68480   0.26710   Biso      1.000     C          0.096433  
         C10       1.0000    0.17040   0.71130   0.33060   Biso      1.000     C          -0.162206           
         C11       1.0000    0.23160   0.61350   0.74410   Biso      1.000     C          0.109508  
         C12       1.0000    0.61260   0.67890   0.70010   Biso      1.000     C          0.075602  
         C13       1.0000    0.68160   0.64720   0.76170   Biso      1.000     C          -0.155704           
         C14       1.0000    0.18160   0.85280   0.26170   Biso      1.000     C          -0.155799           
         C15       1.0000    0.71140   0.70370   0.82890   Biso      1.000     C          0.107347  
         C16       1.0000    0.67040   0.78870   0.83060   Biso      1.000     C          -0.16207  
         C17       1.0000    0.11260   0.82110   0.20010   Biso      1.000     C          0.07560399999999999           
         C18       1.0000    0.60080   0.81520   0.76710   Biso      1.000     C          0.09651599999999999           
         C19       1.0000    0.33230   0.64640   0.62550   Biso      1.000     C          0.076999  
         C20       1.0000    0.78670   0.67280   0.89400   Biso      1.000     C          0.21442600000000003           
         C21       1.0000    0.33070   0.74810   0.73480   Biso      1.000     C          0.086258  
         C22       1.0000    0.21140   0.79630   0.32890   Biso      1.000     C          0.10716800000000001           
         C23       1.0000    0.38740   0.32110   0.29990   Biso      1.000     C          0.07554   
         C24       1.0000    0.31840   0.35280   0.23830   Biso      1.000     C          -0.155897           
         C25       1.0000    0.28860   0.29630   0.17110   Biso      1.000     C          0.10715799999999999           
         C26       1.0000    0.88740   0.17890   0.79990   Biso      1.000     C          0.075556  
         C27       1.0000    0.83600   0.44450   0.20861   Biso      1.000     C          0.208639  
         C28       1.0000    0.81840   0.14720   0.73830   Biso      1.000     C          -0.155844           
         C29       1.0000    0.66770   0.35360   0.37450   Biso      1.000     C          0.076899  
         C30       1.0000    0.78860   0.20370   0.67110   Biso      1.000     C          0.10724000000000002           
         C31       1.0000    0.82960   0.28870   0.66940   Biso      1.000     C          -0.162245           
         C32       1.0000    0.73320   0.41000   0.33420   Biso      1.000     C          -0.173603           
         C33       1.0000    0.89920   0.31520   0.73290   Biso      1.000     C          0.096352  
         C34       1.0000    0.76840   0.38650   0.25590   Biso      1.000     C          0.10931300000000001           
         C35       1.0000    0.71330   0.17280   0.60600   Biso      1.000     C          0.214484  
         C36       1.0000    0.16930   0.24810   0.76520   Biso      1.000     C          0.08614400000000001           
         C37       1.0000    0.73530   0.30490   0.22080   Biso      1.000     C          -0.158951           
         C38       1.0000    0.23530   0.19510   0.72080   Biso      1.000     C          -0.158922           
         C39       1.0000    0.66930   0.25190   0.26520   Biso      1.000     C          0.08620599999999999           
         C40       1.0000    0.26840   0.11350   0.75590   Biso      1.000     C          0.10934200000000001           
         C41       1.0000    0.23320   0.09000   0.83420   Biso      1.000     C          -0.17357  
         C42       1.0000    0.21330   0.32720   0.10600   Biso      1.000     C          0.214549  
         C43       1.0000    0.16770   0.14640   0.87450   Biso      1.000     C          0.076949  
         C44       1.0000    0.39920   0.18480   0.23290   Biso      1.000     C          0.096401  
         C45       1.0000    0.33600   0.05550   0.70861   Biso      1.000     C          0.20863   
         C46       1.0000    0.32960   0.21130   0.16940   Biso      1.000     C          -0.16225  
         C47       1.0000    0.16400   0.55550   0.79139   Biso      1.000     C          0.208517  
         C48       1.0000    0.26470   0.69510   0.77920   Biso      1.000     C          -0.158778           
         Cu1       1.0000    0.52586   0.19820   0.39180   Biso      1.000     Cu          0.526331  
         Cu2       1.0000    0.50000   0.00000   0.50000   Biso      1.000     Cu          0.60597   
         Cu3       1.0000    0.02586   0.30180   0.89180   Biso      1.000     Cu          0.526512  
         Cu4       1.0000    0.47414   0.80180   0.60820   Biso      1.000     Cu          0.5286390000000001  
         Cu5       1.0000    0.00000   0.50000   0.00000   Biso      1.000     Cu          0.606921  
         Cu6       1.0000    0.97414   0.69820   0.10820   Biso      1.000     Cu          0.52641   
         H1        1.0000    0.85260   0.69730   0.25880   Biso      1.000     H          0.091397  
         H2        1.0000    0.74270   0.78630   0.33200   Biso      1.000     H          0.141326  
         H3        1.0000    0.74630   0.96420   0.14020   Biso      1.000     H          0.135243  
         H4        1.0000    0.85500   0.87070   0.07240   Biso      1.000     H          0.089418  
         H5        1.0000    0.24630   0.53580   0.64020   Biso      1.000     H          0.135353  
         H6        1.0000    0.40630   0.35880   0.34550   Biso      1.000     H          0.094054  
         H7        1.0000    0.29230   0.41100   0.24160   Biso      1.000     H          0.14063699999999998           
         H8        1.0000    0.31060   0.17150   0.12550   Biso      1.000     H          0.136007  
         H9        1.0000    0.14500   0.12930   0.92760   Biso      1.000     H          0.089448  
         H10       1.0000    0.42690   0.12700   0.23090   Biso      1.000     H          0.100832  
         H11       1.0000    0.25370   0.03580   0.85980   Biso      1.000     H          0.135229  
         H12       1.0000    0.64740   0.19730   0.24120   Biso      1.000     H          0.091413  
         H13       1.0000    0.14740   0.30270   0.74120   Biso      1.000     H          0.09139   
         H14       1.0000    0.75730   0.28630   0.16800   Biso      1.000     H          0.141309  
         H15       1.0000    0.92690   0.37300   0.73090   Biso      1.000     H          0.10080499999999999           
         H16       1.0000    0.81060   0.32850   0.62550   Biso      1.000     H          0.136027  
         H17       1.0000    0.75370   0.46420   0.35980   Biso      1.000     H          0.135225  
         H18       1.0000    0.79230   0.08900   0.74160   Biso      1.000     H          0.140664  
         H19       1.0000    0.64500   0.37070   0.42760   Biso      1.000     H          0.089413  
         H20       1.0000    0.90630   0.14120   0.84550   Biso      1.000     H          0.094084  
         H21       1.0000    0.25730   0.21370   0.66800   Biso      1.000     H          0.141327  
         H22       1.0000    0.07310   0.62700   0.26910   Biso      1.000     H          0.100849  
         H23       1.0000    0.24270   0.71370   0.83200   Biso      1.000     H          0.141431  
         H24       1.0000    0.18940   0.67150   0.37450   Biso      1.000     H          0.136026  
         H25       1.0000    0.35260   0.80270   0.75880   Biso      1.000     H          0.091475  
         H26       1.0000    0.09370   0.85880   0.15450   Biso      1.000     H          0.094118  
         H27       1.0000    0.35500   0.62930   0.57240   Biso      1.000     H          0.08956499999999999           
         H28       1.0000    0.57310   0.87300   0.76910   Biso      1.000     H          0.10095900000000001           
         H29       1.0000    0.70770   0.58900   0.75840   Biso      1.000     H          0.140767  
         H30       1.0000    0.59370   0.64120   0.65450   Biso      1.000     H          0.094203  
         H31       1.0000    0.20770   0.91100   0.25840   Biso      1.000     H          0.14069500000000001           
         H32       1.0000    0.68940   0.82850   0.87450   Biso      1.000     H          0.13614500000000002           
         N1        1.0000    0.12150   0.58184   0.86374   Biso      1.000     N          -0.245666           
         N2        1.0000    0.36460   0.72434   0.65903   Biso      1.000     N          -0.21110700000000002          
         N3        1.0000    0.83610   0.59377   0.89032   Biso      1.000     N          -0.231458           
         N4        1.0000    0.07040   0.50954   0.88754   Biso      1.000     N          -0.0304   
         N5        1.0000    0.89700   0.59381   0.96028   Biso      1.000     N          -0.015272999999999998         
         N6        1.0000    0.88390   0.66957   0.00388   Biso      1.000     N          -0.037201           
         N7        1.0000    0.81460   0.72122   0.96392   Biso      1.000     N          -0.256096           
         N8        1.0000    0.57200   0.76072   0.70276   Biso      1.000     N          -0.19153499999999998          
         N9        1.0000    0.08120   0.44268   0.83302   Biso      1.000     N          -0.091443           
         N10       1.0000    0.18540   0.27878   0.03608   Biso      1.000     N          -0.256212           
         N11       1.0000    0.14000   0.46976   0.77085   Biso      1.000     N          -0.274993           
         N12       1.0000    0.11610   0.33043   0.99612   Biso      1.000     N          -0.037395           
         N13       1.0000    0.10300   0.40619   0.03972   Biso      1.000     N          -0.015408000000000002         
         N14       1.0000    0.16390   0.40623   0.10968   Biso      1.000     N          -0.23146  
         N15       1.0000    0.63540   0.27566   0.34097   Biso      1.000     N          -0.21113  
         N16       1.0000    0.87850   0.41816   0.13626   Biso      1.000     N          -0.245714           
         N17       1.0000    0.92960   0.49046   0.11246   Biso      1.000     N          -0.03053  
         N18       1.0000    0.91880   0.55732   0.16698   Biso      1.000     N          -0.09162100000000001          
         N19       1.0000    0.86000   0.53024   0.22915   Biso      1.000     N          -0.27507600000000004          
         N20       1.0000    0.91690   0.37497   0.94235   Biso      1.000     N          -0.562046           
         N21       1.0000    0.83060   0.36440   0.92810   Biso      1.000     N          0.47147   
         N22       1.0000    0.74510   0.35510   0.91480   Biso      1.000     N          -0.406879           
         N23       1.0000    0.42800   0.23928   0.29724   Biso      1.000     N          -0.191629           
         N24       1.0000    0.08310   0.62503   0.05765   Biso      1.000     N          -0.5621109999999999           
         N25       1.0000    0.68540   0.22122   0.53608   Biso      1.000     N          -0.256203           
         N26       1.0000    0.92800   0.26072   0.79724   Biso      1.000     N          -0.191682           
         N27       1.0000    0.33060   0.13560   0.42810   Biso      1.000     N          0.4713    
         N28       1.0000    0.41690   0.12503   0.44235   Biso      1.000     N          -0.561922           
         N29       1.0000    0.36000   0.96976   0.72915   Biso      1.000     N          -0.27520900000000004          
         N30       1.0000    0.41880   0.94268   0.66698   Biso      1.000     N          -0.092125           
         N31       1.0000    0.42960   0.00954   0.61246   Biso      1.000     N          -0.030501999999999998         
         N32       1.0000    0.37850   0.08184   0.63626   Biso      1.000     N          -0.245587           
         N33       1.0000    0.13540   0.22434   0.84097   Biso      1.000     N          -0.211142           
         N34       1.0000    0.07200   0.73928   0.20276   Biso      1.000     N          -0.191584           
         N35       1.0000    0.31460   0.77878   0.46392   Biso      1.000     N          -0.256303           
         N36       1.0000    0.38390   0.83043   0.50388   Biso      1.000     N          -0.03753  
         N37       1.0000    0.39700   0.90619   0.46028   Biso      1.000     N          -0.014937           
         N38       1.0000    0.16940   0.63560   0.07190   Biso      1.000     N          0.471476  
         N39       1.0000    0.33610   0.90623   0.39032   Biso      1.000     N          -0.23115500000000003          
         N40       1.0000    0.57040   0.99046   0.38754   Biso      1.000     N          -0.030747000000000003         
         N41       1.0000    0.58120   0.05732   0.33302   Biso      1.000     N          -0.09157799999999999          
         N42       1.0000    0.64000   0.03024   0.27085   Biso      1.000     N          -0.275282           
         N43       1.0000    0.58310   0.87497   0.55765   Biso      1.000     N          -0.562566           
         N44       1.0000    0.66940   0.86440   0.57190   Biso      1.000     N          0.471458  
         N45       1.0000    0.75490   0.85510   0.58520   Biso      1.000     N          -0.407654           
         N46       1.0000    0.66390   0.09377   0.60968   Biso      1.000     N          -0.231544           
         N47       1.0000    0.60300   0.09381   0.53972   Biso      1.000     N          -0.014889           
         N48       1.0000    0.61610   0.16957   0.49612   Biso      1.000     N          -0.037285000000000006         
         N49       1.0000    0.25490   0.64490   0.08520   Biso      1.000     N          -0.406945           
         N50       1.0000    0.24510   0.14490   0.41480   Biso      1.000     N          -0.40718200000000004          
         N51       1.0000    0.62150   0.91816   0.36374   Biso      1.000     N          -0.245761           
         N52       1.0000    0.86460   0.77566   0.15903   Biso      1.000     N          -0.21119899999999997 