
##########################################################################
#               Crystallographic Information Format file
#               Produced by PyCifRW module
#
#  This is a CIF file.  CIF has been adopted by the International
#  Union of Crystallography as the standard for data archiving and
#  transmission.
#
#  For information on this file format, follow the CIF links at
#  http://www.iucr.org
##########################################################################

data_image0

_cell_length_a                          6.654
_cell_length_b                          16.448
_cell_length_c                          13.375
_cell_angle_alpha                       90
_cell_angle_beta                        90
_cell_angle_gamma                       90
_symmetry_space_group_name_H-M          'P 1'
_symmetry_int_tables_number             1
loop_
  _symmetry_equiv_pos_as_xyz
         'x, y, z' 
loop_
  _atom_site_label
  _atom_site_occupancy
  _atom_site_fract_x
  _atom_site_fract_y
  _atom_site_fract_z
  _atom_site_thermal_displace_type
  _atom_site_B_iso_or_equiv
  _atom_site_type_symbol
  _atom_site_charge
         Al1       1.0000    0.24611   0.75261   0.25049   Biso      1.000     Al          1.727765  
         Al2       1.0000    0.24614   0.25262   0.75041   Biso      1.000     Al          1.726199  
         Al3       1.0000    0.74628   0.25263   0.75048   Biso      1.000     Al          1.72759   
         Al4       1.0000    0.74603   0.75263   0.25041   Biso      1.000     Al          1.726187  
         C1        1.0000    0.31540   0.46754   0.53097   Biso      1.000     C          -0.096432           
         C2        1.0000    0.49637   0.64475   0.36530   Biso      1.000     C          0.636992  
         C3        1.0000    0.49635   0.57221   0.43504   Biso      1.000     C          -0.032526           
         C4        1.0000    0.17726   0.96785   0.03143   Biso      1.000     C          -0.097062           
         C5        1.0000    0.99625   0.14506   0.86573   Biso      1.000     C          0.636276  
         C6        1.0000    0.99630   0.07259   0.93560   Biso      1.000     C          -0.033294           
         C7        1.0000    0.81546   0.46800   0.96926   Biso      1.000     C          -0.096537           
         C8        1.0000    0.99642   0.43233   0.93620   Biso      1.000     C          -0.032561           
         C9        1.0000    0.81538   0.53676   0.03249   Biso      1.000     C          -0.096933           
         C10       1.0000    0.31546   0.03657   0.53284   Biso      1.000     C          -0.097183           
         C11       1.0000    0.67726   0.53626   0.46770   Biso      1.000     C          -0.098225           
         C12       1.0000    0.17724   0.03664   0.96823   Biso      1.000     C          -0.098436           
         C13       1.0000    0.67724   0.46754   0.53100   Biso      1.000     C          -0.097963           
         C14       1.0000    0.81542   0.96785   0.03145   Biso      1.000     C          -0.096902           
         C15       1.0000    0.99643   0.36016   0.86586   Biso      1.000     C          0.634645  
         C16       1.0000    0.49618   0.85994   0.36617   Biso      1.000     C          0.635123  
         C17       1.0000    0.81541   0.03664   0.96825   Biso      1.000     C          -0.096523           
         C18       1.0000    0.31543   0.53626   0.46768   Biso      1.000     C          -0.097412           
         C19       1.0000    0.49625   0.35989   0.63470   Biso      1.000     C          0.634956  
         C20       1.0000    0.49631   0.43186   0.56408   Biso      1.000     C          -0.032658           
         C21       1.0000    0.17730   0.46815   0.96911   Biso      1.000     C          -0.097878           
         C22       1.0000    0.49625   0.93200   0.43667   Biso      1.000     C          -0.033121           
         C23       1.0000    0.99636   0.93210   0.06443   Biso      1.000     C          -0.033192           
         C24       1.0000    0.99636   0.86001   0.13487   Biso      1.000     C          0.635267  
         C25       1.0000    0.49643   0.14491   0.63541   Biso      1.000     C          0.636196  
         C26       1.0000    0.49641   0.07245   0.56556   Biso      1.000     C          -0.032366           
         C27       1.0000    0.17722   0.53692   0.03234   Biso      1.000     C          -0.098153           
         C28       1.0000    0.99618   0.64511   0.13512   Biso      1.000     C          0.636797  
         C29       1.0000    0.99625   0.57273   0.06514   Biso      1.000     C          -0.032986           
         C30       1.0000    0.67730   0.03643   0.53298   Biso      1.000     C          -0.098517           
         C31       1.0000    0.67722   0.96767   0.46974   Biso      1.000     C          -0.096693           
         C32       1.0000    0.31538   0.96782   0.46961   Biso      1.000     C          -0.096312           
         H1        1.0000    0.49601   0.75308   0.13241   Biso      1.000     H          0.446356  
         H2        1.0000    0.81973   0.56125   0.44404   Biso      1.000     H          0.118944  
         H3        1.0000    0.49620   0.25299   0.86849   Biso      1.000     H          0.445499  
         H4        1.0000    0.31967   0.06167   0.94458   Biso      1.000     H          0.118789  
         H5        1.0000    0.17288   0.94273   0.44615   Biso      1.000     H          0.118021  
         H6        1.0000    0.99600   0.75284   0.36854   Biso      1.000     H          0.446335  
         H7        1.0000    0.81969   0.44239   0.55442   Biso      1.000     H          0.118544  
         H8        1.0000    0.17289   0.44240   0.55436   Biso      1.000     H          0.118148  
         H9        1.0000    0.31976   0.94269   0.05478   Biso      1.000     H          0.118513  
         H10       1.0000    0.31966   0.56200   0.05592   Biso      1.000     H          0.118944  
         H11       1.0000    0.81968   0.94247   0.44641   Biso      1.000     H          0.118364  
         H12       1.0000    0.31980   0.44308   0.94563   Biso      1.000     H          0.118847  
         H13       1.0000    0.81978   0.06140   0.55667   Biso      1.000     H          0.118918  
         H14       1.0000    0.67296   0.94268   0.05483   Biso      1.000     H          0.118438  
         H15       1.0000    0.17298   0.56126   0.44398   Biso      1.000     H          0.118378  
         H16       1.0000    0.17303   0.06166   0.55640   Biso      1.000     H          0.118167  
         H17       1.0000    0.67291   0.06165   0.94464   Biso      1.000     H          0.118269  
         H18       1.0000    0.99620   0.25278   0.63237   Biso      1.000     H          0.446288  
         H19       1.0000    0.67301   0.44281   0.94591   Biso      1.000     H          0.118221  
         H20       1.0000    0.67290   0.56173   0.05619   Biso      1.000     H          0.118173  
         O1        1.0000    0.82541   0.33109   0.83651   Biso      1.000     O          -0.604207           
         O2        1.0000    0.32510   0.83100   0.33667   Biso      1.000     O          -0.604224           
         O3        1.0000    0.66743   0.67392   0.33614   Biso      1.000     O          -0.604748           
         O4        1.0000    0.82513   0.67420   0.16440   Biso      1.000     O          -0.604825           
         O5        1.0000    0.32533   0.17411   0.66451   Biso      1.000     O          -0.604725           
         O6        1.0000    0.82512   0.17419   0.83656   Biso      1.000     O          -0.604695           
         O7        1.0000    0.82533   0.83100   0.16430   Biso      1.000     O          -0.603444           
         O8        1.0000    0.66723   0.33095   0.66427   Biso      1.000     O          -0.604167           
         O9        1.0000    0.66723   0.83094   0.33670   Biso      1.000     O          -0.603841           
         O10       1.0000    0.32524   0.33093   0.66418   Biso      1.000     O          -0.603413           
         O11       1.0000    0.49620   0.25278   0.80404   Biso      1.000     O          -1.04526  
         O12       1.0000    0.99604   0.75271   0.30409   Biso      1.000     O          -1.046002           
         O13       1.0000    0.49605   0.75281   0.19687   Biso      1.000     O          -1.046525           
         O14       1.0000    0.99621   0.25268   0.69682   Biso      1.000     O          -1.046197           
         O15       1.0000    0.16720   0.67425   0.16437   Biso      1.000     O          -0.605428           
         O16       1.0000    0.66751   0.17402   0.66465   Biso      1.000     O          -0.604962           
         O17       1.0000    0.16744   0.33118   0.83638   Biso      1.000     O          -0.603602           
         O18       1.0000    0.32531   0.67396   0.33621   Biso      1.000     O          -0.60516  
         O19       1.0000    0.16741   0.83104   0.16436   Biso      1.000     O          -0.604261           
         O20       1.0000    0.16735   0.17417   0.83647   Biso      1.000     O          -0.604597 