
##########################################################################
#               Crystallographic Information Format file
#               Produced by PyCifRW module
#
#  This is a CIF file.  CIF has been adopted by the International
#  Union of Crystallography as the standard for data archiving and
#  transmission.
#
#  For information on this file format, follow the CIF links at
#  http://www.iucr.org
##########################################################################

data_image0

_cell_length_a                          10.504
_cell_length_b                          12.106
_cell_length_c                          12.411
_cell_angle_alpha                       66.78
_cell_angle_beta                        70.34
_cell_angle_gamma                       65.04
_symmetry_space_group_name_H-M          'P 1'
_symmetry_int_tables_number             1
loop_
  _symmetry_equiv_pos_as_xyz
         'x, y, z' 
loop_
  _atom_site_label
  _atom_site_occupancy
  _atom_site_fract_x
  _atom_site_fract_y
  _atom_site_fract_z
  _atom_site_thermal_displace_type
  _atom_site_B_iso_or_equiv
  _atom_site_type_symbol
  _atom_site_charge
         C1        1.0000    0.26140   0.72420   0.88570   Biso      1.000     C          0.668933  
         C2        1.0000    0.38550   0.11090   0.97290   Biso      1.000     C          0.167875  
         C3        1.0000    0.68080   0.35200   0.80840   Biso      1.000     C          0.685042  
         C4        1.0000    0.13390   0.42340   0.87860   Biso      1.000     C          -0.02829  
         C5        1.0000    0.17930   0.78000   0.33400   Biso      1.000     C          -0.047828           
         C6        1.0000    0.83550   0.16160   0.29330   Biso      1.000     C          -0.051698           
         C7        1.0000    0.30350   0.77470   0.75120   Biso      1.000     C          -0.35213  
         C8        1.0000    0.86970   0.76860   0.03920   Biso      1.000     C          0.113516  
         C9        1.0000    0.26880   0.34840   0.89270   Biso      1.000     C          -0.093461           
         C10       1.0000    0.67270   0.28490   0.73180   Biso      1.000     C          -0.36007  
         C11       1.0000    0.68580   0.67010   0.81200   Biso      1.000     C          0.676662  
         C12       1.0000    0.67790   0.79970   0.72270   Biso      1.000     C          -0.358298           
         C13       1.0000    0.73860   0.27580   0.11430   Biso      1.000     C          0.668936  
         C14       1.0000    0.38760   0.99820   0.96600   Biso      1.000     C          -0.150539           
         C15       1.0000    0.69650   0.22530   0.24880   Biso      1.000     C          -0.352131           
         C16       1.0000    0.82430   0.81390   0.66850   Biso      1.000     C          -0.053439           
         C17       1.0000    0.13030   0.23140   0.96080   Biso      1.000     C          0.11352   
         C18       1.0000    0.49630   0.11340   0.00660   Biso      1.000     C          -0.15527  
         C19       1.0000    0.81090   0.19550   0.48140   Biso      1.000     C          0.545926  
         C20       1.0000    0.32730   0.71510   0.26820   Biso      1.000     C          -0.360067           
         C21       1.0000    0.73120   0.65160   0.10730   Biso      1.000     C          -0.093485           
         C22       1.0000    0.17570   0.18610   0.33150   Biso      1.000     C          -0.053439           
         C23       1.0000    0.31420   0.32990   0.18800   Biso      1.000     C          0.676658  
         C24       1.0000    0.16450   0.83840   0.70670   Biso      1.000     C          -0.051698           
         C25       1.0000    0.86610   0.57660   0.12140   Biso      1.000     C          -0.028277           
         C26       1.0000    0.32210   0.20030   0.27730   Biso      1.000     C          -0.358297           
         C27       1.0000    0.81680   0.99130   0.48220   Biso      1.000     C          0.543073  
         C28       1.0000    0.31920   0.64800   0.19160   Biso      1.000     C          0.685038  
         C29       1.0000    0.61450   0.88910   0.02710   Biso      1.000     C          0.167878  
         C30       1.0000    0.50370   0.88660   0.99340   Biso      1.000     C          -0.155269           
         C31       1.0000    0.18320   0.00870   0.51780   Biso      1.000     C          0.543071  
         C32       1.0000    0.18910   0.80450   0.51860   Biso      1.000     C          0.545924  
         C33       1.0000    0.18750   0.98010   0.33230   Biso      1.000     C          0.551741  
         C34       1.0000    0.61240   0.00180   0.03400   Biso      1.000     C          -0.15054  
         C35       1.0000    0.81250   0.01990   0.66770   Biso      1.000     C          0.551742  
         C36       1.0000    0.82070   0.22000   0.66600   Biso      1.000     C          -0.047828           
         Co1       1.0000    0.15904   0.59047   0.09112   Biso      1.000     Co          0.857915  
         Co2       1.0000    0.50000   0.50000   0.00000   Biso      1.000     Co          1.042363  
         Co3       1.0000    0.84096   0.40953   0.90888   Biso      1.000     Co          0.857947  
         H1        1.0000    0.86200   0.28440   0.60900   Biso      1.000     H          0.117824  
         H2        1.0000    0.68760   0.00300   0.05670   Biso      1.000     H          0.137107  
         H3        1.0000    0.09940   0.16120   0.99540   Biso      1.000     H          0.115483  
         H4        1.0000    0.50610   0.81090   0.98890   Biso      1.000     H          0.133678  
         H5        1.0000    0.35170   0.83570   0.72960   Biso      1.000     H          0.145647  
         H6        1.0000    0.36720   0.70570   0.71710   Biso      1.000     H          0.149192  
         H7        1.0000    0.38240   0.13510   0.23770   Biso      1.000     H          0.138648  
         H8        1.0000    0.89610   0.48850   0.15520   Biso      1.000     H          0.12633   
         H9        1.0000    0.36600   0.18750   0.34060   Biso      1.000     H          0.151636  
         H10       1.0000    0.10570   0.90970   0.73880   Biso      1.000     H          0.105857  
         H11       1.0000    0.11340   0.77800   0.73830   Biso      1.000     H          0.107052  
         H12       1.0000    0.12320   0.21850   0.26820   Biso      1.000     H          0.105246  
         H13       1.0000    0.65240   0.62540   0.12830   Biso      1.000     H          0.141306  
         H14       1.0000    0.38590   0.65350   0.32620   Biso      1.000     H          0.149975  
         H15       1.0000    0.49390   0.18910   0.01110   Biso      1.000     H          0.133678  
         H16       1.0000    0.90060   0.83880   0.00460   Biso      1.000     H          0.11548   
         H17       1.0000    0.64830   0.16430   0.27040   Biso      1.000     H          0.145651  
         H18       1.0000    0.13800   0.71560   0.39100   Biso      1.000     H          0.11782   
         H19       1.0000    0.88260   0.16560   0.72320   Biso      1.000     H          0.115912  
         H20       1.0000    0.31240   0.99700   0.94330   Biso      1.000     H          0.137107  
         H21       1.0000    0.37310   0.77840   0.21780   Biso      1.000     H          0.135621  
         H22       1.0000    0.63280   0.29430   0.28290   Biso      1.000     H          0.149196  
         H23       1.0000    0.62690   0.22160   0.78220   Biso      1.000     H          0.135625  
         H24       1.0000    0.61760   0.86490   0.76230   Biso      1.000     H          0.138652  
         H25       1.0000    0.63400   0.81250   0.65940   Biso      1.000     H          0.15164   
         H26       1.0000    0.61410   0.34650   0.67380   Biso      1.000     H          0.149981  
         H27       1.0000    0.34760   0.37460   0.87170   Biso      1.000     H          0.141307  
         H28       1.0000    0.87680   0.78150   0.73180   Biso      1.000     H          0.105248  
         H29       1.0000    0.87670   0.76230   0.61410   Biso      1.000     H          0.115527  
         H30       1.0000    0.10390   0.51150   0.84480   Biso      1.000     H          0.126334  
         H31       1.0000    0.12330   0.23770   0.38590   Biso      1.000     H          0.115524  
         H32       1.0000    0.88660   0.22200   0.26170   Biso      1.000     H          0.107054  
         H33       1.0000    0.89430   0.09030   0.26120   Biso      1.000     H          0.10586   
         H34       1.0000    0.11740   0.83440   0.27680   Biso      1.000     H          0.115908  
         N1        1.0000    0.04700   0.34920   0.92200   Biso      1.000     N          -0.307873           
         N2        1.0000    0.81800   0.94710   0.60280   Biso      1.000     N          -0.249149           
         N3        1.0000    0.81450   0.14250   0.60190   Biso      1.000     N          -0.247434           
         N4        1.0000    0.18110   0.88520   0.57560   Biso      1.000     N          -0.244666           
         N5        1.0000    0.18550   0.85750   0.39810   Biso      1.000     N          -0.247433           
         N6        1.0000    0.18200   0.05290   0.39720   Biso      1.000     N          -0.24915  
         N7        1.0000    0.95300   0.65080   0.07800   Biso      1.000     N          -0.307867           
         N8        1.0000    0.81890   0.11480   0.42440   Biso      1.000     N          -0.244666           
         N9        1.0000    0.26660   0.22530   0.94430   Biso      1.000     N          0.022548  
         N10       1.0000    0.73340   0.77470   0.05570   Biso      1.000     N          0.022548  
         O1        1.0000    0.81080   0.59100   0.82300   Biso      1.000     O          -0.550917           
         O2        1.0000    0.18980   0.02050   0.22630   Biso      1.000     O          -0.473617           
         O3        1.0000    0.82200   0.20450   0.05380   Biso      1.000     O          -0.525852           
         O4        1.0000    0.69710   0.39900   0.06480   Biso      1.000     O          -0.625358           
         O5        1.0000    0.80190   0.35800   0.79650   Biso      1.000     O          -0.54232  
         O6        1.0000    0.56830   0.39480   0.87890   Biso      1.000     O          -0.599597           
         O7        1.0000    0.57140   0.64790   0.87020   Biso      1.000     O          -0.586442           
         O8        1.0000    0.82010   0.92430   0.42960   Biso      1.000     O          -0.466773           
         O9        1.0000    0.19490   0.69450   0.57210   Biso      1.000     O          -0.475449           
         O10       1.0000    0.81020   0.97950   0.77370   Biso      1.000     O          -0.473615           
         O11       1.0000    0.17800   0.79550   0.94620   Biso      1.000     O          -0.525857           
         O12       1.0000    0.30290   0.60100   0.93520   Biso      1.000     O          -0.625363           
         O13       1.0000    0.19810   0.64200   0.20350   Biso      1.000     O          -0.542321           
         O14       1.0000    0.43170   0.60520   0.12110   Biso      1.000     O          -0.599601           
         O15       1.0000    0.42860   0.35210   0.12980   Biso      1.000     O          -0.586449           
         O16       1.0000    0.17990   0.07570   0.57040   Biso      1.000     O          -0.466776           
         O17       1.0000    0.80510   0.30550   0.42790   Biso      1.000     O          -0.475446           
         O18       1.0000    0.18920   0.40900   0.17700   Biso      1.000     O          -0.550916 