
##########################################################################
#               Crystallographic Information Format file
#               Produced by PyCifRW module
#
#  This is a CIF file.  CIF has been adopted by the International
#  Union of Crystallography as the standard for data archiving and
#  transmission.
#
#  For information on this file format, follow the CIF links at
#  http://www.iucr.org
##########################################################################

data_image0

_cell_length_a                          9.8457
_cell_length_b                          19.4937
_cell_length_c                          16.7455
_cell_angle_alpha                       90
_cell_angle_beta                        94.348
_cell_angle_gamma                       90
_symmetry_space_group_name_H-M          'P 1'
_symmetry_int_tables_number             1
loop_
  _symmetry_equiv_pos_as_xyz
         'x, y, z' 
loop_
  _atom_site_label
  _atom_site_occupancy
  _atom_site_fract_x
  _atom_site_fract_y
  _atom_site_fract_z
  _atom_site_thermal_displace_type
  _atom_site_B_iso_or_equiv
  _atom_site_type_symbol
  _atom_site_charge
         C1        1.0000    0.07690   0.64660   0.82330   Biso      1.000     C          -0.09671  
         C2        1.0000    0.04710   0.70170   0.77240   Biso      1.000     C          -0.147472           
         C3        1.0000    0.14650   0.74660   0.75170   Biso      1.000     C          0.06180700000000001           
         C4        1.0000    0.27680   0.73670   0.78580   Biso      1.000     C          -0.152178           
         C5        1.0000    0.21390   0.66120   0.15710   Biso      1.000     C          -0.205008           
         C6        1.0000    0.30770   0.68170   0.83630   Biso      1.000     C          -0.11183599999999999          
         C7        1.0000    0.20900   0.63560   0.85410   Biso      1.000     C          -0.025774000000000002         
         C8        1.0000    0.24380   0.57460   0.90790   Biso      1.000     C          0.596748  
         C9        1.0000    0.56620   0.65320   0.06020   Biso      1.000     C          0.09650700000000001           
         C10       1.0000    0.11410   0.69510   0.19540   Biso      1.000     C          0.11389   
         C11       1.0000    0.59620   0.70840   0.11020   Biso      1.000     C          -0.202594           
         C12       1.0000    0.18130   0.60780   0.10550   Biso      1.000     C          0.092684  
         C13       1.0000    0.61380   0.69840   0.19240   Biso      1.000     C          0.11429   
         C14       1.0000    0.60160   0.63160   0.21870   Biso      1.000     C          -0.20492  
         C15       1.0000    0.57330   0.57940   0.16460   Biso      1.000     C          0.104814  
         C16       1.0000    0.95720   0.61940   0.12290   Biso      1.000     C          0.091417  
         C17       1.0000    0.62980   0.87660   0.28070   Biso      1.000     C          -0.103567           
         C18       1.0000    0.60340   0.82310   0.22840   Biso      1.000     C          -0.141539           
         C19       1.0000    0.64370   0.75620   0.24890   Biso      1.000     C          0.050037  
         C20       1.0000    0.61380   0.80160   0.69240   Biso      1.000     C          0.10444500000000001           
         C21       1.0000    0.71310   0.74640   0.32300   Biso      1.000     C          -0.148068           
         C22       1.0000    0.72320   0.26330   0.21420   Biso      1.000     C          -0.15218299999999998          
         C23       1.0000    0.74440   0.80100   0.37360   Biso      1.000     C          -0.10721800000000001          
         C24       1.0000    0.98260   0.67260   0.17640   Biso      1.000     C          -0.212625           
         C25       1.0000    0.43380   0.34680   0.93980   Biso      1.000     C          0.09650700000000001           
         C26       1.0000    0.18130   0.89220   0.60550   Biso      1.000     C          0.097221  
         C27       1.0000    0.07690   0.85340   0.32330   Biso      1.000     C          -0.097577           
         C28       1.0000    0.60160   0.86840   0.71870   Biso      1.000     C          -0.205577           
         C29       1.0000    0.56620   0.84680   0.56020   Biso      1.000     C          0.085747  
         C30       1.0000    0.57330   0.92060   0.66460   Biso      1.000     C          0.094898  
         C31       1.0000    0.62980   0.62340   0.78070   Biso      1.000     C          -0.104072           
         C32       1.0000    0.24380   0.92540   0.40790   Biso      1.000     C          0.593954  
         C33       1.0000    0.60340   0.67690   0.72840   Biso      1.000     C          -0.14464200000000002          
         C34       1.0000    0.64370   0.74380   0.74890   Biso      1.000     C          0.050782  
         C35       1.0000    0.20900   0.86440   0.35410   Biso      1.000     C          -0.026237           
         C36       1.0000    0.71310   0.75360   0.82300   Biso      1.000     C          -0.151299           
         C37       1.0000    0.30770   0.81830   0.33630   Biso      1.000     C          -0.113626           
         C38       1.0000    0.74440   0.69900   0.87360   Biso      1.000     C          -0.110196           
         C39       1.0000    0.70320   0.63330   0.85380   Biso      1.000     C          -0.003488           
         C40       1.0000    0.73790   0.57330   0.90870   Biso      1.000     C          0.588488  
         C41       1.0000    0.85350   0.25340   0.24830   Biso      1.000     C          0.061810000000000004          
         C42       1.0000    0.95290   0.29830   0.22760   Biso      1.000     C          -0.147473           
         C43       1.0000    0.92310   0.35340   0.17670   Biso      1.000     C          -0.096708           
         C44       1.0000    0.27680   0.76330   0.28580   Biso      1.000     C          -0.153726           
         C45       1.0000    0.14650   0.75340   0.25170   Biso      1.000     C          0.063499  
         C46       1.0000    0.95720   0.88060   0.62290   Biso      1.000     C          0.097828  
         C47       1.0000    0.04710   0.79830   0.27240   Biso      1.000     C          -0.148827           
         C48       1.0000    0.98260   0.82740   0.67640   Biso      1.000     C          -0.211934           
         C49       1.0000    0.11410   0.80490   0.69540   Biso      1.000     C          0.12010599999999999           
         C50       1.0000    0.21390   0.83880   0.65710   Biso      1.000     C          -0.20405  
         C51       1.0000    0.70320   0.86670   0.35380   Biso      1.000     C          -0.00095  
         C52       1.0000    0.73790   0.92670   0.40870   Biso      1.000     C          0.593486  
         C53       1.0000    0.59620   0.79160   0.61020   Biso      1.000     C          -0.203204           
         C54       1.0000    0.35630   0.24380   0.75110   Biso      1.000     C          0.050037  
         C55       1.0000    0.04280   0.11940   0.37710   Biso      1.000     C          0.097827  
         C56       1.0000    0.69230   0.18170   0.66370   Biso      1.000     C          -0.113631           
         C57       1.0000    0.79100   0.13560   0.64590   Biso      1.000     C          -0.026236000000000002         
         C58       1.0000    0.75620   0.07460   0.59210   Biso      1.000     C          0.593954  
         C59       1.0000    0.81870   0.10780   0.39450   Biso      1.000     C          0.097221  
         C60       1.0000    0.43380   0.15320   0.43980   Biso      1.000     C          0.085747  
         C61       1.0000    0.39660   0.17690   0.77160   Biso      1.000     C          -0.141546           
         C62       1.0000    0.26210   0.42670   0.09130   Biso      1.000     C          0.588488  
         C63       1.0000    0.40380   0.20840   0.38980   Biso      1.000     C          -0.203205           
         C64       1.0000    0.38620   0.19840   0.30760   Biso      1.000     C          0.104446  
         C65       1.0000    0.29680   0.36670   0.14620   Biso      1.000     C          -0.0034909999999999997        
         C66       1.0000    0.39840   0.13160   0.28130   Biso      1.000     C          -0.205577           
         C67       1.0000    0.37020   0.12340   0.71930   Biso      1.000     C          -0.10355999999999999          
         C68       1.0000    0.25560   0.30100   0.12640   Biso      1.000     C          -0.110195           
         C69       1.0000    0.42670   0.07940   0.33540   Biso      1.000     C          0.094898  
         C70       1.0000    0.39840   0.36840   0.78130   Biso      1.000     C          -0.20492  
         C71       1.0000    0.28690   0.24640   0.17700   Biso      1.000     C          -0.151298           
         C72       1.0000    0.37020   0.37660   0.21930   Biso      1.000     C          -0.104072           
         C73       1.0000    0.42670   0.42060   0.83540   Biso      1.000     C          0.104814  
         C74       1.0000    0.39660   0.32310   0.27160   Biso      1.000     C          -0.14464200000000002          
         C75       1.0000    0.28690   0.25360   0.67700   Biso      1.000     C          -0.148069           
         C76       1.0000    0.72320   0.23670   0.71420   Biso      1.000     C          -0.153726           
         C77       1.0000    0.95290   0.20170   0.72760   Biso      1.000     C          -0.148831           
         C78       1.0000    0.78610   0.16120   0.34290   Biso      1.000     C          -0.204051           
         C79       1.0000    0.69230   0.31830   0.16370   Biso      1.000     C          -0.11183599999999999          
         C80       1.0000    0.88590   0.19510   0.30460   Biso      1.000     C          0.12010599999999999           
         C81       1.0000    0.01740   0.17260   0.32360   Biso      1.000     C          -0.21193299999999998          
         C82       1.0000    0.79100   0.36440   0.14590   Biso      1.000     C          -0.025774000000000002         
         C83       1.0000    0.04280   0.38060   0.87710   Biso      1.000     C          0.091417  
         C84       1.0000    0.75620   0.42540   0.09210   Biso      1.000     C          0.596748  
         C85       1.0000    0.01740   0.32740   0.82360   Biso      1.000     C          -0.212627           
         C86       1.0000    0.88590   0.30490   0.80460   Biso      1.000     C          0.11389   
         C87       1.0000    0.85350   0.24660   0.74830   Biso      1.000     C          0.0635    
         C88       1.0000    0.35630   0.25620   0.25110   Biso      1.000     C          0.050783  
         C89       1.0000    0.78610   0.33880   0.84290   Biso      1.000     C          -0.205006           
         C90       1.0000    0.29680   0.13330   0.64620   Biso      1.000     C          -0.0009539999999999999        
         C91       1.0000    0.81870   0.39220   0.89450   Biso      1.000     C          0.092684  
         C92       1.0000    0.25560   0.19900   0.62640   Biso      1.000     C          -0.107214           
         C93       1.0000    0.92310   0.14660   0.67670   Biso      1.000     C          -0.097572           
         C94       1.0000    0.40380   0.29160   0.88980   Biso      1.000     C          -0.202594           
         C95       1.0000    0.38620   0.30160   0.80760   Biso      1.000     C          0.114291  
         C96       1.0000    0.26210   0.07330   0.59130   Biso      1.000     C          0.593487  
         H1        1.0000    0.60460   0.74790   0.58890   Biso      1.000     H          0.128305  
         H2        1.0000    0.38740   0.37810   0.72690   Biso      1.000     H          0.127451  
         H3        1.0000    0.55300   0.83860   0.50550   Biso      1.000     H          0.091435  
         H4        1.0000    0.39540   0.24790   0.91110   Biso      1.000     H          0.12848299999999999           
         H5        1.0000    0.60350   0.32420   0.14170   Biso      1.000     H          0.10776400000000001           
         H6        1.0000    0.39650   0.82420   0.35830   Biso      1.000     H          0.107668  
         H7        1.0000    0.40220   0.07970   0.73310   Biso      1.000     H          0.117754  
         H8        1.0000    0.34510   0.73250   0.27470   Biso      1.000     H          0.101498  
         H9        1.0000    0.44190   0.16850   0.82140   Biso      1.000     H          0.113508  
         H10       1.0000    0.95780   0.79150   0.25180   Biso      1.000     H          0.10313199999999999           
         H11       1.0000    0.00780   0.88280   0.33660   Biso      1.000     H          0.116774  
         H12       1.0000    0.26090   0.29770   0.66110   Biso      1.000     H          0.11363800000000002           
         H13       1.0000    0.25150   0.58550   0.08190   Biso      1.000     H          0.09251000000000001           
         H14       1.0000    0.20560   0.20680   0.57790   Biso      1.000     H          0.11593900000000001           
         H15       1.0000    0.30430   0.67470   0.16630   Biso      1.000     H          0.11405599999999999           
         H16       1.0000    0.91060   0.69350   0.19980   Biso      1.000     H          0.11383399999999999           
         H17       1.0000    0.86730   0.60600   0.11090   Biso      1.000     H          0.087783  
         H18       1.0000    0.43330   0.46510   0.81590   Biso      1.000     H          0.096484  
         H19       1.0000    0.65490   0.23250   0.22530   Biso      1.000     H          0.101974  
         H20       1.0000    0.44700   0.33860   0.99450   Biso      1.000     H          0.090239  
         H21       1.0000    0.56670   0.96510   0.68410   Biso      1.000     H          0.098006  
         H22       1.0000    0.69570   0.17470   0.33370   Biso      1.000     H          0.114797  
         H23       1.0000    0.13270   0.39400   0.88910   Biso      1.000     H          0.087783  
         H24       1.0000    0.08940   0.30650   0.80020   Biso      1.000     H          0.11383399999999999           
         H25       1.0000    0.69570   0.32530   0.83370   Biso      1.000     H          0.11405599999999999           
         H26       1.0000    0.74850   0.41450   0.91810   Biso      1.000     H          0.09251000000000001           
         H27       1.0000    0.99220   0.11720   0.66340   Biso      1.000     H          0.116773  
         H28       1.0000    0.04220   0.20850   0.74820   Biso      1.000     H          0.10313199999999999           
         H29       1.0000    0.65490   0.26750   0.72530   Biso      1.000     H          0.101498  
         H30       1.0000    0.60350   0.17580   0.64170   Biso      1.000     H          0.107668  
         H31       1.0000    0.44700   0.16140   0.49450   Biso      1.000     H          0.091435  
         H32       1.0000    0.39540   0.25210   0.41110   Biso      1.000     H          0.128305  
         H33       1.0000    0.38740   0.12190   0.22690   Biso      1.000     H          0.12730999999999998           
         H34       1.0000    0.43330   0.03490   0.31590   Biso      1.000     H          0.098006  
         H35       1.0000    0.40220   0.42030   0.23310   Biso      1.000     H          0.11678699999999999           
         H36       1.0000    0.44190   0.33150   0.32140   Biso      1.000     H          0.113069  
         H37       1.0000    0.26090   0.20230   0.16110   Biso      1.000     H          0.11285799999999999           
         H38       1.0000    0.20560   0.29320   0.07790   Biso      1.000     H          0.11517899999999999           
         H39       1.0000    0.08940   0.19350   0.30020   Biso      1.000     H          0.11455499999999999           
         H40       1.0000    0.13270   0.10600   0.38910   Biso      1.000     H          0.086617  
         H41       1.0000    0.74850   0.08550   0.41810   Biso      1.000     H          0.091679  
         H42       1.0000    0.61260   0.87810   0.77310   Biso      1.000     H          0.12730999999999998           
         H43       1.0000    0.79440   0.79320   0.42210   Biso      1.000     H          0.11593900000000001           
         H44       1.0000    0.55810   0.83150   0.17860   Biso      1.000     H          0.113508  
         H45       1.0000    0.59780   0.57970   0.76690   Biso      1.000     H          0.11678699999999999           
         H46       1.0000    0.55810   0.66850   0.67860   Biso      1.000     H          0.113069  
         H47       1.0000    0.73910   0.79770   0.83890   Biso      1.000     H          0.11285799999999999           
         H48       1.0000    0.79440   0.70680   0.92210   Biso      1.000     H          0.11517999999999999           
         H49       1.0000    0.04220   0.29150   0.24820   Biso      1.000     H          0.10335599999999999           
         H50       1.0000    0.99220   0.38280   0.16340   Biso      1.000     H          0.11822200000000001           
         H51       1.0000    0.86730   0.89400   0.61090   Biso      1.000     H          0.086617  
         H52       1.0000    0.73910   0.70230   0.33890   Biso      1.000     H          0.11363800000000002           
         H53       1.0000    0.30430   0.82530   0.66630   Biso      1.000     H          0.114797  
         H54       1.0000    0.91060   0.80650   0.69980   Biso      1.000     H          0.11455499999999999           
         H55       1.0000    0.00780   0.61720   0.83660   Biso      1.000     H          0.11822200000000001           
         H56       1.0000    0.95780   0.70850   0.75180   Biso      1.000     H          0.10335599999999999           
         H57       1.0000    0.34510   0.76750   0.77470   Biso      1.000     H          0.101974  
         H58       1.0000    0.39650   0.67580   0.85830   Biso      1.000     H          0.10776400000000001           
         H59       1.0000    0.55300   0.66140   0.00550   Biso      1.000     H          0.090239  
         H60       1.0000    0.60460   0.75210   0.08890   Biso      1.000     H          0.12848299999999999           
         H61       1.0000    0.61260   0.62190   0.27310   Biso      1.000     H          0.127451  
         H62       1.0000    0.56670   0.53490   0.18410   Biso      1.000     H          0.096484  
         H63       1.0000    0.59780   0.92030   0.26690   Biso      1.000     H          0.117754  
         H64       1.0000    0.25150   0.91450   0.58190   Biso      1.000     H          0.091679  
         Mn1       1.0000    0.00000   0.50000   0.00000   Biso      1.000     Mn          0.752681  
         Mn2       1.0000    0.50000   0.00000   0.50000   Biso      1.000     Mn          0.740392  
         Mn3       1.0000    0.50000   0.50000   0.00000   Biso      1.000     Mn          0.9234559999999999  
         Mn4       1.0000    0.00000   0.00000   0.50000   Biso      1.000     Mn          0.943961  
         N1        1.0000    0.44500   0.08905   0.41420   Biso      1.000     N          -0.188747           
         N2        1.0000    0.05460   0.58660   0.08780   Biso      1.000     N          -0.189412           
         N3        1.0000    0.94540   0.41340   0.91220   Biso      1.000     N          -0.189412           
         N4        1.0000    0.94540   0.08660   0.41220   Biso      1.000     N          -0.224816           
         N5        1.0000    0.44500   0.41095   0.91420   Biso      1.000     N          -0.21889299999999998          
         N6        1.0000    0.55500   0.58905   0.08580   Biso      1.000     N          -0.21889299999999998          
         N7        1.0000    0.55500   0.91095   0.58580   Biso      1.000     N          -0.188747           
         N8        1.0000    0.05460   0.91340   0.58780   Biso      1.000     N          -0.224816           
         O1        1.0000    0.14410   0.42745   0.05820   Biso      1.000     O          -0.517755           
         O2        1.0000    0.35230   0.47094   0.08453   Biso      1.000     O          -0.5773689999999999           
         O3        1.0000    0.63540   0.07037   0.56497   Biso      1.000     O          -0.526898           
         O4        1.0000    0.84980   0.03341   0.58026   Biso      1.000     O          -0.578909           
         O5        1.0000    0.85590   0.92745   0.44180   Biso      1.000     O          -0.550638           
         O6        1.0000    0.63540   0.42963   0.06497   Biso      1.000     O          -0.570294           
         O7        1.0000    0.84980   0.46659   0.08026   Biso      1.000     O          -0.5461729999999999           
         O8        1.0000    0.15020   0.53341   0.91974   Biso      1.000     O          -0.5461729999999999           
         O9        1.0000    0.85590   0.57255   0.94180   Biso      1.000     O          -0.517755           
         O10       1.0000    0.64770   0.52906   0.91547   Biso      1.000     O          -0.5773689999999999           
         O11       1.0000    0.36460   0.92963   0.43503   Biso      1.000     O          -0.526899           
         O12       1.0000    0.15020   0.96659   0.41974   Biso      1.000     O          -0.578909           
         O13       1.0000    0.14410   0.07255   0.55820   Biso      1.000     O          -0.550638           
         O14       1.0000    0.35230   0.02906   0.58453   Biso      1.000     O          -0.546737           
         O15       1.0000    0.64770   0.97094   0.41547   Biso      1.000     O          -0.546737           
         O16       1.0000    0.36460   0.57037   0.93503   Biso      1.000     O          -0.570294 