
##########################################################################
#               Crystallographic Information Format file
#               Produced by PyCifRW module
#
#  This is a CIF file.  CIF has been adopted by the International
#  Union of Crystallography as the standard for data archiving and
#  transmission.
#
#  For information on this file format, follow the CIF links at
#  http://www.iucr.org
##########################################################################

data_image0

_cell_length_a                          10.792
_cell_length_b                          13.889
_cell_length_c                          19.739
_cell_angle_alpha                       90
_cell_angle_beta                        100.91
_cell_angle_gamma                       90
_symmetry_space_group_name_H-M          'P 1'
_symmetry_int_tables_number             1
loop_
  _symmetry_equiv_pos_as_xyz
         'x, y, z' 
loop_
  _atom_site_label
  _atom_site_occupancy
  _atom_site_fract_x
  _atom_site_fract_y
  _atom_site_fract_z
  _atom_site_thermal_displace_type
  _atom_site_B_iso_or_equiv
  _atom_site_type_symbol
  _atom_site_charge
         C1        1.0000    0.56750   0.69340   0.21830   Biso      1.000     C          0.573946  
         C2        1.0000    0.62770   0.20750   0.82590   Biso      1.000     C          -0.052261           
         C3        1.0000    0.53280   0.05320   0.74710   Biso      1.000     C          0.11823900000000001           
         C4        1.0000    0.11930   0.43250   0.15210   Biso      1.000     C          0.589445  
         C5        1.0000    0.53640   0.63770   0.75760   Biso      1.000     C          -0.146572           
         C6        1.0000    0.91640   0.84830   0.30770   Biso      1.000     C          -0.098356           
         C7        1.0000    0.69350   0.28760   0.86910   Biso      1.000     C          0.609047  
         C8        1.0000    0.96080   0.81590   0.73900   Biso      1.000     C          0.122676  
         C9        1.0000    0.46720   0.55320   0.75290   Biso      1.000     C          0.11823499999999999           
         C10       1.0000    0.03920   0.31590   0.76100   Biso      1.000     C          0.12266600000000001           
         C11       1.0000    0.03880   0.76470   0.23740   Biso      1.000     C          -0.146832           
         C12       1.0000    0.08360   0.34830   0.19230   Biso      1.000     C          -0.098354           
         C13       1.0000    0.10990   0.56910   0.77410   Biso      1.000     C          0.588258  
         C14       1.0000    0.50960   0.21740   0.78190   Biso      1.000     C          0.030146  
         C15       1.0000    0.03920   0.18410   0.26100   Biso      1.000     C          0.12266400000000001           
         C16       1.0000    0.09680   0.35550   0.95960   Biso      1.000     C          0.789574  
         C17       1.0000    0.50960   0.28260   0.28190   Biso      1.000     C          0.030141  
         C18       1.0000    0.90320   0.64450   0.04040   Biso      1.000     C          0.789573  
         C19       1.0000    0.03880   0.73530   0.73740   Biso      1.000     C          -0.146835           
         C20       1.0000    0.10990   0.93090   0.27410   Biso      1.000     C          0.5882689999999999  
         C21       1.0000    0.69040   0.11970   0.82910   Biso      1.000     C          0.04214   
         C22       1.0000    0.11930   0.06750   0.65210   Biso      1.000     C          0.589453  
         C23       1.0000    0.30960   0.61970   0.67090   Biso      1.000     C          0.042137  
         C24       1.0000    0.43250   0.30660   0.78170   Biso      1.000     C          0.573956  
         C25       1.0000    0.46360   0.36230   0.24240   Biso      1.000     C          -0.146567           
         C26       1.0000    0.84860   0.76320   0.31000   Biso      1.000     C          0.053804  
         C27       1.0000    0.08360   0.15170   0.69230   Biso      1.000     C          -0.098358           
         C28       1.0000    0.84860   0.73680   0.81000   Biso      1.000     C          0.053805  
         C29       1.0000    0.30650   0.78760   0.63090   Biso      1.000     C          0.6090409999999999  
         C30       1.0000    0.56750   0.80660   0.71830   Biso      1.000     C          0.57394   
         C31       1.0000    0.09680   0.14450   0.45960   Biso      1.000     C          0.789574  
         C32       1.0000    0.98280   0.15220   0.72700   Biso      1.000     C          0.042102  
         C33       1.0000    0.15140   0.23680   0.69000   Biso      1.000     C          0.0538    
         C34       1.0000    0.96120   0.26470   0.26260   Biso      1.000     C          -0.146835           
         C35       1.0000    0.01720   0.84780   0.27300   Biso      1.000     C          0.042089999999999995          
         C36       1.0000    0.46360   0.13770   0.74240   Biso      1.000     C          -0.146569           
         C37       1.0000    0.22440   0.31460   0.96460   Biso      1.000     C          -0.6291140000000001           
         C38       1.0000    0.77560   0.68540   0.03540   Biso      1.000     C          -0.629116           
         C39       1.0000    0.22440   0.18540   0.46460   Biso      1.000     C          -0.6291180000000001           
         C40       1.0000    0.53280   0.44680   0.24710   Biso      1.000     C          0.11824200000000001           
         C41       1.0000    0.77560   0.81460   0.53540   Biso      1.000     C          -0.629112           
         C42       1.0000    0.69350   0.21240   0.36910   Biso      1.000     C          0.609036  
         C43       1.0000    0.30650   0.71240   0.13090   Biso      1.000     C          0.6090300000000001  
         C44       1.0000    0.96080   0.68410   0.23900   Biso      1.000     C          0.122676  
         C45       1.0000    0.98280   0.34780   0.22700   Biso      1.000     C          0.042102  
         C46       1.0000    0.30960   0.88030   0.17090   Biso      1.000     C          0.042138  
         C47       1.0000    0.37230   0.79250   0.17410   Biso      1.000     C          -0.05225  
         C48       1.0000    0.88070   0.56750   0.84790   Biso      1.000     C          0.589458  
         C49       1.0000    0.88070   0.93250   0.34790   Biso      1.000     C          0.5894510000000001  
         C50       1.0000    0.62770   0.29250   0.32590   Biso      1.000     C          -0.05225  
         C51       1.0000    0.53640   0.86230   0.25760   Biso      1.000     C          -0.146571           
         C52       1.0000    0.89010   0.06910   0.72590   Biso      1.000     C          0.58824   
         C53       1.0000    0.01720   0.65220   0.77300   Biso      1.000     C          0.042094  
         C54       1.0000    0.49040   0.71740   0.71810   Biso      1.000     C          0.030156  
         C55       1.0000    0.91640   0.65170   0.80770   Biso      1.000     C          -0.098362           
         C56       1.0000    0.43250   0.19340   0.28170   Biso      1.000     C          0.573965  
         C57       1.0000    0.37230   0.70750   0.67410   Biso      1.000     C          -0.052258000000000006         
         C58       1.0000    0.96120   0.23530   0.76260   Biso      1.000     C          -0.146835           
         C59       1.0000    0.89010   0.43090   0.22590   Biso      1.000     C          0.5882470000000001  
         C60       1.0000    0.15140   0.26320   0.19000   Biso      1.000     C          0.053798  
         C61       1.0000    0.90320   0.85550   0.54040   Biso      1.000     C          0.789571  
         C62       1.0000    0.49040   0.78260   0.21810   Biso      1.000     C          0.030154000000000004          
         C63       1.0000    0.46720   0.94680   0.25290   Biso      1.000     C          0.11823499999999999           
         C64       1.0000    0.69040   0.38030   0.32910   Biso      1.000     C          0.042141000000000005          
         Cu1       1.0000    0.75762   0.56994   0.28501   Biso      1.000     Cu          0.7440359999999999  
         Cu2       1.0000    0.75762   0.93006   0.78501   Biso      1.000     Cu          0.744034  
         Cu3       1.0000    0.24238   0.06994   0.21499   Biso      1.000     Cu          0.744054  
         Cu4       1.0000    0.24238   0.43006   0.71499   Biso      1.000     Cu          0.744042  
         H1        1.0000    0.23350   0.61290   0.64010   Biso      1.000     H          0.1152    
         H2        1.0000    0.27110   0.17720   0.51070   Biso      1.000     H          0.200749  
         H3        1.0000    0.78620   0.76240   0.33680   Biso      1.000     H          0.104399  
         H4        1.0000    0.50000   0.99900   0.28000   Biso      1.000     H          0.106893  
         H5        1.0000    0.73290   0.65290   0.06730   Biso      1.000     H          0.22205300000000003           
         H6        1.0000    0.26710   0.15290   0.43270   Biso      1.000     H          0.22205300000000003           
         H7        1.0000    0.78620   0.73760   0.83680   Biso      1.000     H          0.10440799999999999           
         H8        1.0000    0.89580   0.26260   0.28720   Biso      1.000     H          0.137798  
         H9        1.0000    0.21380   0.23760   0.66320   Biso      1.000     H          0.104405  
         H10       1.0000    0.10420   0.73740   0.71280   Biso      1.000     H          0.137812  
         H11       1.0000    0.78210   0.75280   0.04640   Biso      1.000     H          0.206389  
         H12       1.0000    0.21790   0.24720   0.95360   Biso      1.000     H          0.20638299999999998           
         H13       1.0000    0.23350   0.88710   0.14010   Biso      1.000     H          0.115191  
         H14       1.0000    0.78210   0.74720   0.54640   Biso      1.000     H          0.206384  
         H15       1.0000    0.27110   0.32280   0.01070   Biso      1.000     H          0.200757  
         H16       1.0000    0.76650   0.38710   0.35990   Biso      1.000     H          0.115192  
         H17       1.0000    0.89580   0.23740   0.78720   Biso      1.000     H          0.13780699999999999           
         H18       1.0000    0.72890   0.82280   0.48930   Biso      1.000     H          0.200756  
         H19       1.0000    0.61420   0.85890   0.28730   Biso      1.000     H          0.13409000000000001           
         H20       1.0000    0.61420   0.64110   0.78730   Biso      1.000     H          0.134097  
         H21       1.0000    0.38580   0.14110   0.71270   Biso      1.000     H          0.134099  
         H22       1.0000    0.21790   0.25280   0.45360   Biso      1.000     H          0.206389  
         H23       1.0000    0.50000   0.00100   0.72000   Biso      1.000     H          0.106903  
         H24       1.0000    0.26710   0.34710   0.93270   Biso      1.000     H          0.222046  
         H25       1.0000    0.76650   0.11290   0.85990   Biso      1.000     H          0.115202  
         H26       1.0000    0.38580   0.35890   0.21270   Biso      1.000     H          0.13409300000000002           
         H27       1.0000    0.02650   0.12980   0.28630   Biso      1.000     H          0.11192   
         H28       1.0000    0.02650   0.37020   0.78630   Biso      1.000     H          0.111925  
         H29       1.0000    0.72890   0.67720   0.98930   Biso      1.000     H          0.20075   
         H30       1.0000    0.97350   0.87020   0.71370   Biso      1.000     H          0.111928  
         H31       1.0000    0.73290   0.84710   0.56730   Biso      1.000     H          0.222048  
         H32       1.0000    0.50000   0.50100   0.78000   Biso      1.000     H          0.1069    
         H33       1.0000    0.97350   0.62980   0.21370   Biso      1.000     H          0.11192300000000001           
         H34       1.0000    0.21380   0.26240   0.16320   Biso      1.000     H          0.104396  
         H35       1.0000    0.10420   0.76260   0.21280   Biso      1.000     H          0.137804  
         H36       1.0000    0.50000   0.49900   0.22000   Biso      1.000     H          0.106896  
         Ho1       1.0000    0.15432   0.56839   0.05714   Biso      1.000     Ho          2.012314  
         Ho2       1.0000    0.84568   0.06839   0.44285   Biso      1.000     Ho          2.0123889999999998  
         Ho3       1.0000    0.15432   0.93161   0.55714   Biso      1.000     Ho          2.012321  
         Ho4       1.0000    0.84568   0.43161   0.94285   Biso      1.000     Ho          2.012396  
         N1        1.0000    0.13220   0.18300   0.22380   Biso      1.000     N          -0.215166           
         N2        1.0000    0.13220   0.31700   0.72380   Biso      1.000     N          -0.21516799999999997          
         N3        1.0000    0.64510   0.04380   0.78920   Biso      1.000     N          -0.207657           
         N4        1.0000    0.35490   0.95620   0.21080   Biso      1.000     N          -0.207657           
         N5        1.0000    0.35490   0.54380   0.71080   Biso      1.000     N          -0.20765799999999998          
         N6        1.0000    0.64510   0.45620   0.28920   Biso      1.000     N          -0.207655           
         N7        1.0000    0.86780   0.68300   0.27620   Biso      1.000     N          -0.21516500000000002          
         N8        1.0000    0.86780   0.81700   0.77620   Biso      1.000     N          -0.21516799999999997          
         O1        1.0000    0.19230   0.55910   0.82540   Biso      1.000     O          -0.563662           
         O2        1.0000    0.99930   0.30880   0.93020   Biso      1.000     O          -0.624868           
         O3        1.0000    0.00070   0.80880   0.56980   Biso      1.000     O          -0.6248640000000001           
         O4        1.0000    0.26490   0.72560   0.06840   Biso      1.000     O          -0.639209           
         O5        1.0000    0.09920   0.97980   0.21920   Biso      1.000     O          -0.557829           
         O6        1.0000    0.91990   0.93910   0.51790   Biso      1.000     O          -0.805154           
         O7        1.0000    0.09920   0.52020   0.71920   Biso      1.000     O          -0.557814           
         O8        1.0000    0.90080   0.02020   0.78080   Biso      1.000     O          -0.557811           
         O9        1.0000    0.38690   0.15950   0.22080   Biso      1.000     O          -0.564683           
         O10       1.0000    0.19230   0.94090   0.32540   Biso      1.000     O          -0.563673           
         O11       1.0000    0.71450   0.36630   0.83890   Biso      1.000     O          -0.6454989999999999           
         O12       1.0000    0.58430   0.84000   0.66370   Biso      1.000     O          -0.541775           
         O13       1.0000    0.78790   0.92360   0.37700   Biso      1.000     O          -0.63654  
         O14       1.0000    0.21210   0.07640   0.62300   Biso      1.000     O          -0.6365069999999999           
         O15       1.0000    0.38690   0.34050   0.72080   Biso      1.000     O          -0.564671           
         O16       1.0000    0.99930   0.19120   0.43020   Biso      1.000     O          -0.6248630000000001           
         O17       1.0000    0.28550   0.63370   0.16110   Biso      1.000     O          -0.64544  
         O18       1.0000    0.05780   0.50910   0.15100   Biso      1.000     O          -0.58016  
         O19       1.0000    0.73510   0.27440   0.93160   Biso      1.000     O          -0.6391859999999999           
         O20       1.0000    0.61310   0.65950   0.27920   Biso      1.000     O          -0.564674           
         O21       1.0000    0.08010   0.06090   0.48210   Biso      1.000     O          -0.805137           
         O22       1.0000    0.94220   0.49090   0.84900   Biso      1.000     O          -0.580202           
         O23       1.0000    0.28550   0.86630   0.66110   Biso      1.000     O          -0.645446           
         O24       1.0000    0.90080   0.47980   0.28080   Biso      1.000     O          -0.55782  
         O25       1.0000    0.78790   0.57640   0.87700   Biso      1.000     O          -0.636538           
         O26       1.0000    0.08010   0.43910   0.98210   Biso      1.000     O          -0.805134           
         O27       1.0000    0.05780   0.99090   0.65100   Biso      1.000     O          -0.58016  
         O28       1.0000    0.61310   0.84050   0.77920   Biso      1.000     O          -0.564667           
         O29       1.0000    0.26490   0.77440   0.56840   Biso      1.000     O          -0.639204           
         O30       1.0000    0.00070   0.69120   0.06980   Biso      1.000     O          -0.624857           
         O31       1.0000    0.41570   0.16000   0.33630   Biso      1.000     O          -0.541784           
         O32       1.0000    0.80770   0.44090   0.17460   Biso      1.000     O          -0.563663           
         O33       1.0000    0.41570   0.34000   0.83630   Biso      1.000     O          -0.5417770000000001           
         O34       1.0000    0.71450   0.13370   0.33890   Biso      1.000     O          -0.645491           
         O35       1.0000    0.94220   0.00910   0.34900   Biso      1.000     O          -0.580201           
         O36       1.0000    0.58430   0.66000   0.16370   Biso      1.000     O          -0.54178  
         O37       1.0000    0.80770   0.05910   0.67460   Biso      1.000     O          -0.563657           
         O38       1.0000    0.91990   0.56090   0.01790   Biso      1.000     O          -0.805158           
         O39       1.0000    0.73510   0.22560   0.43160   Biso      1.000     O          -0.639192           
         O40       1.0000    0.21210   0.42360   0.12300   Biso      1.000     O          -0.636509 