
##########################################################################
#               Crystallographic Information Format file
#               Produced by PyCifRW module
#
#  This is a CIF file.  CIF has been adopted by the International
#  Union of Crystallography as the standard for data archiving and
#  transmission.
#
#  For information on this file format, follow the CIF links at
#  http://www.iucr.org
##########################################################################

data_image0

_cell_length_a                          10.632
_cell_length_b                          13.862
_cell_length_c                          19.498
_cell_angle_alpha                       90
_cell_angle_beta                        99.98
_cell_angle_gamma                       90
_symmetry_space_group_name_H-M          'P 1'
_symmetry_int_tables_number             1
loop_
  _symmetry_equiv_pos_as_xyz
         'x, y, z' 
loop_
  _atom_site_label
  _atom_site_occupancy
  _atom_site_fract_x
  _atom_site_fract_y
  _atom_site_fract_z
  _atom_site_thermal_displace_type
  _atom_site_B_iso_or_equiv
  _atom_site_type_symbol
  _atom_site_charge
         C1        1.0000    0.09490   0.64510   0.95760   Biso      1.000     C          0.785227  
         C2        1.0000    0.88910   0.57230   0.22760   Biso      1.000     C          0.575314  
         C3        1.0000    0.12040   0.56870   0.15250   Biso      1.000     C          0.5782149999999999  
         C4        1.0000    0.03520   0.81970   0.25870   Biso      1.000     C          0.131327  
         C5        1.0000    0.96040   0.73890   0.26250   Biso      1.000     C          -0.142094           
         C6        1.0000    0.98190   0.65540   0.22790   Biso      1.000     C          0.045451  
         C7        1.0000    0.08290   0.65530   0.19070   Biso      1.000     C          -0.091337           
         C8        1.0000    0.15110   0.73930   0.18760   Biso      1.000     C          0.051144999999999996          
         C9        1.0000    0.22610   0.68620   0.96200   Biso      1.000     C          -0.620758           
         C10       1.0000    0.69140   0.70990   0.87200   Biso      1.000     C          0.605033  
         C11       1.0000    0.43210   0.68880   0.78090   Biso      1.000     C          0.572349  
         C12       1.0000    0.52950   0.94560   0.75000   Biso      1.000     C          0.11972200000000001           
         C13       1.0000    0.46120   0.86060   0.74410   Biso      1.000     C          -0.146761           
         C14       1.0000    0.50920   0.78130   0.78340   Biso      1.000     C          0.031778  
         C15       1.0000    0.62410   0.79150   0.82900   Biso      1.000     C          -0.055406           
         C16       1.0000    0.68500   0.87900   0.83310   Biso      1.000     C          0.049046  
         C17       1.0000    0.88910   0.92770   0.72760   Biso      1.000     C          0.575285  
         C18       1.0000    0.12040   0.93130   0.65250   Biso      1.000     C          0.578216  
         C19       1.0000    0.03520   0.68030   0.75870   Biso      1.000     C          0.131296  
         C20       1.0000    0.96040   0.76110   0.76250   Biso      1.000     C          -0.142067           
         C21       1.0000    0.68500   0.62100   0.33310   Biso      1.000     C          0.049043  
         C22       1.0000    0.62410   0.70850   0.32900   Biso      1.000     C          -0.055379           
         C23       1.0000    0.50920   0.71870   0.28340   Biso      1.000     C          0.031837  
         C24       1.0000    0.46120   0.63940   0.24410   Biso      1.000     C          -0.146714           
         C25       1.0000    0.77390   0.31380   0.03800   Biso      1.000     C          -0.620762           
         C26       1.0000    0.30860   0.29010   0.12800   Biso      1.000     C          0.605023  
         C27       1.0000    0.56790   0.31120   0.21910   Biso      1.000     C          0.5723630000000001  
         C28       1.0000    0.47050   0.05440   0.25000   Biso      1.000     C          0.119753  
         C29       1.0000    0.53880   0.13940   0.25590   Biso      1.000     C          -0.146791           
         C30       1.0000    0.49080   0.21870   0.21660   Biso      1.000     C          0.031715  
         C31       1.0000    0.37590   0.20850   0.17100   Biso      1.000     C          -0.055420000000000004         
         C32       1.0000    0.31500   0.12100   0.16690   Biso      1.000     C          0.049054  
         C33       1.0000    0.11090   0.07230   0.27240   Biso      1.000     C          0.5752550000000001  
         C34       1.0000    0.98190   0.84460   0.72790   Biso      1.000     C          0.045495  
         C35       1.0000    0.87960   0.06870   0.34750   Biso      1.000     C          0.5782229999999999  
         C36       1.0000    0.03960   0.23890   0.23750   Biso      1.000     C          -0.142032           
         C37       1.0000    0.01810   0.15540   0.27210   Biso      1.000     C          0.045534  
         C38       1.0000    0.91710   0.15530   0.30930   Biso      1.000     C          -0.09128  
         C39       1.0000    0.84890   0.23930   0.31240   Biso      1.000     C          0.05112   
         C40       1.0000    0.09490   0.85490   0.45760   Biso      1.000     C          0.785238  
         C41       1.0000    0.22610   0.81380   0.46200   Biso      1.000     C          -0.6207590000000001           
         C42       1.0000    0.69140   0.79010   0.37200   Biso      1.000     C          0.605032  
         C43       1.0000    0.43210   0.81120   0.28090   Biso      1.000     C          0.572325  
         C44       1.0000    0.52950   0.55440   0.25000   Biso      1.000     C          0.11971400000000001           
         C45       1.0000    0.96480   0.31970   0.24130   Biso      1.000     C          0.131278  
         C46       1.0000    0.08290   0.84470   0.69070   Biso      1.000     C          -0.09131399999999999          
         C47       1.0000    0.90510   0.35490   0.04240   Biso      1.000     C          0.785216  
         C48       1.0000    0.47050   0.44560   0.75000   Biso      1.000     C          0.119724  
         C49       1.0000    0.77390   0.18620   0.53800   Biso      1.000     C          -0.6207600000000001           
         C50       1.0000    0.53880   0.36060   0.75590   Biso      1.000     C          -0.146766           
         C51       1.0000    0.03960   0.26110   0.73750   Biso      1.000     C          -0.142068           
         C52       1.0000    0.49080   0.28130   0.71660   Biso      1.000     C          0.03178   
         C53       1.0000    0.31500   0.37900   0.66690   Biso      1.000     C          0.04904   
         C54       1.0000    0.90510   0.14510   0.54240   Biso      1.000     C          0.785217  
         C55       1.0000    0.37590   0.29150   0.67100   Biso      1.000     C          -0.055409           
         C56       1.0000    0.84890   0.26070   0.81240   Biso      1.000     C          0.051131  
         C57       1.0000    0.11090   0.42770   0.77240   Biso      1.000     C          0.57529   
         C58       1.0000    0.30860   0.20990   0.62800   Biso      1.000     C          0.605031  
         C59       1.0000    0.96480   0.18030   0.74130   Biso      1.000     C          0.131302  
         C60       1.0000    0.56790   0.18880   0.71910   Biso      1.000     C          0.572342  
         C61       1.0000    0.87960   0.43130   0.84750   Biso      1.000     C          0.578216  
         C62       1.0000    0.01810   0.34460   0.77210   Biso      1.000     C          0.045492000000000005          
         C63       1.0000    0.15110   0.76070   0.68760   Biso      1.000     C          0.051131  
         C64       1.0000    0.91710   0.34470   0.80930   Biso      1.000     C          -0.091306           
         Cu1       1.0000    0.75657   0.06790   0.78942   Biso      1.000     Cu          0.745132  
         Cu2       1.0000    0.24343   0.56790   0.71058   Biso      1.000     Cu          0.745121  
         Cu3       1.0000    0.24343   0.93210   0.21058   Biso      1.000     Cu          0.744757  
         Cu4       1.0000    0.75657   0.43210   0.28942   Biso      1.000     Cu          0.74548   
         Er1       1.0000    0.15502   0.06708   0.55591   Biso      1.000     Er          2.01565   
         Er2       1.0000    0.15502   0.43292   0.05591   Biso      1.000     Er          2.015663  
         Er3       1.0000    0.84498   0.56708   0.94409   Biso      1.000     Er          2.015628  
         Er4       1.0000    0.84498   0.93292   0.44409   Biso      1.000     Er          2.015677  
         H1        1.0000    0.61650   0.35640   0.78610   Biso      1.000     H          0.132189  
         H2        1.0000    0.10490   0.25920   0.71130   Biso      1.000     H          0.13300399999999998           
         H3        1.0000    0.49720   0.50190   0.22270   Biso      1.000     H          0.10696099999999999           
         H4        1.0000    0.97960   0.12510   0.71670   Biso      1.000     H          0.1118    
         H5        1.0000    0.02040   0.87490   0.28330   Biso      1.000     H          0.11179700000000001           
         H6        1.0000    0.28030   0.86030   0.44510   Biso      1.000     H          0.21115799999999998           
         H7        1.0000    0.22210   0.75640   0.43420   Biso      1.000     H          0.202938  
         H8        1.0000    0.26020   0.79830   0.50960   Biso      1.000     H          0.2059    
         H9        1.0000    0.76060   0.61430   0.36490   Biso      1.000     H          0.11125299999999999           
         H10       1.0000    0.97960   0.37490   0.21670   Biso      1.000     H          0.111804  
         H11       1.0000    0.10490   0.24080   0.21130   Biso      1.000     H          0.133024  
         H12       1.0000    0.23940   0.38570   0.63510   Biso      1.000     H          0.111223  
         H13       1.0000    0.89510   0.74080   0.28870   Biso      1.000     H          0.132982  
         H14       1.0000    0.23940   0.11430   0.13510   Biso      1.000     H          0.111239  
         H15       1.0000    0.71970   0.36030   0.05490   Biso      1.000     H          0.21113800000000002           
         H16       1.0000    0.50280   0.49810   0.77730   Biso      1.000     H          0.106949  
         H17       1.0000    0.77790   0.25640   0.06580   Biso      1.000     H          0.202942  
         H18       1.0000    0.21610   0.76050   0.66120   Biso      1.000     H          0.10475   
         H19       1.0000    0.73980   0.29830   0.99040   Biso      1.000     H          0.205916  
         H20       1.0000    0.89510   0.75920   0.78870   Biso      1.000     H          0.133002  
         H21       1.0000    0.78390   0.23950   0.33880   Biso      1.000     H          0.10476099999999999           
         H22       1.0000    0.02040   0.62510   0.78330   Biso      1.000     H          0.11179700000000001           
         H23       1.0000    0.50280   0.00190   0.27730   Biso      1.000     H          0.106947  
         H24       1.0000    0.76060   0.88570   0.86490   Biso      1.000     H          0.11124200000000001           
         H25       1.0000    0.21610   0.73950   0.16120   Biso      1.000     H          0.104754  
         H26       1.0000    0.61650   0.14360   0.28610   Biso      1.000     H          0.132168  
         H27       1.0000    0.71970   0.13970   0.55490   Biso      1.000     H          0.211157  
         H28       1.0000    0.77790   0.24360   0.56580   Biso      1.000     H          0.202933  
         H29       1.0000    0.38350   0.85640   0.71390   Biso      1.000     H          0.132192  
         H30       1.0000    0.73980   0.20170   0.49040   Biso      1.000     H          0.20588099999999998           
         H31       1.0000    0.49720   0.99810   0.72270   Biso      1.000     H          0.106954  
         H32       1.0000    0.26020   0.70170   0.00960   Biso      1.000     H          0.20590100000000003           
         H33       1.0000    0.22210   0.74360   0.93420   Biso      1.000     H          0.20293699999999998           
         H34       1.0000    0.28030   0.63970   0.94510   Biso      1.000     H          0.211142  
         H35       1.0000    0.78390   0.26050   0.83880   Biso      1.000     H          0.10475699999999999           
         H36       1.0000    0.38350   0.64360   0.21390   Biso      1.000     H          0.132215  
         N1        1.0000    0.64170   0.95530   0.79400   Biso      1.000     N          -0.20984099999999997          
         N2        1.0000    0.87100   0.32020   0.27960   Biso      1.000     N          -0.21856199999999998          
         N3        1.0000    0.64170   0.54470   0.29400   Biso      1.000     N          -0.20985  
         N4        1.0000    0.35830   0.45530   0.70600   Biso      1.000     N          -0.209839           
         N5        1.0000    0.12900   0.82020   0.22040   Biso      1.000     N          -0.218529           
         N6        1.0000    0.87100   0.17980   0.77960   Biso      1.000     N          -0.218554           
         N7        1.0000    0.12900   0.67980   0.72040   Biso      1.000     N          -0.218552           
         N8        1.0000    0.35830   0.04470   0.20600   Biso      1.000     N          -0.209813           
         O1        1.0000    0.10070   0.47610   0.71587   Biso      1.000     O          -0.557029           
         O2        1.0000    0.26990   0.27720   0.06410   Biso      1.000     O          -0.646729           
         O3        1.0000    0.19590   0.43910   0.82397   Biso      1.000     O          -0.5581729999999999           
         O4        1.0000    0.61160   0.34160   0.28135   Biso      1.000     O          -0.5639270000000001           
         O5        1.0000    0.58620   0.34740   0.16500   Biso      1.000     O          -0.538191           
         O6        1.0000    0.92030   0.43900   0.01863   Biso      1.000     O          -0.811096           
         O7        1.0000    0.00290   0.30870   0.07095   Biso      1.000     O          -0.6152380000000001           
         O8        1.0000    0.94250   0.50830   0.84891   Biso      1.000     O          -0.576871           
         O9        1.0000    0.10070   0.02390   0.21587   Biso      1.000     O          -0.557184           
         O10       1.0000    0.28670   0.36710   0.15912   Biso      1.000     O          -0.6339090000000001           
         O11       1.0000    0.41380   0.84740   0.33500   Biso      1.000     O          -0.5383140000000001           
         O12       1.0000    0.28670   0.13290   0.65912   Biso      1.000     O          -0.633868           
         O13       1.0000    0.80410   0.93910   0.67603   Biso      1.000     O          -0.558163           
         O14       1.0000    0.89930   0.97610   0.78413   Biso      1.000     O          -0.556994           
         O15       1.0000    0.71330   0.63290   0.84088   Biso      1.000     O          -0.633872           
         O16       1.0000    0.73010   0.72280   0.93590   Biso      1.000     O          -0.646756           
         O17       1.0000    0.38840   0.65840   0.71865   Biso      1.000     O          -0.5641649999999999           
         O18       1.0000    0.21600   0.92360   0.62134   Biso      1.000     O          -0.639192           
         O19       1.0000    0.41380   0.65260   0.83500   Biso      1.000     O          -0.538272           
         O20       1.0000    0.07970   0.56100   0.98137   Biso      1.000     O          -0.811114           
         O21       1.0000    0.99710   0.69130   0.92905   Biso      1.000     O          -0.6152350000000001           
         O22       1.0000    0.21600   0.57640   0.12134   Biso      1.000     O          -0.6391789999999999           
         O23       1.0000    0.05750   0.49170   0.15109   Biso      1.000     O          -0.576919           
         O24       1.0000    0.80410   0.56090   0.17603   Biso      1.000     O          -0.558099           
         O25       1.0000    0.19590   0.06090   0.32397   Biso      1.000     O          -0.5582020000000001           
         O26       1.0000    0.89930   0.52390   0.28413   Biso      1.000     O          -0.556818           
         O27       1.0000    0.00290   0.19130   0.57095   Biso      1.000     O          -0.615243           
         O28       1.0000    0.73010   0.77720   0.43590   Biso      1.000     O          -0.646741           
         O29       1.0000    0.38840   0.84160   0.21865   Biso      1.000     O          -0.564341           
         O30       1.0000    0.92030   0.06100   0.51863   Biso      1.000     O          -0.811107           
         O31       1.0000    0.05750   0.00830   0.65109   Biso      1.000     O          -0.5768810000000001           
         O32       1.0000    0.07970   0.93900   0.48137   Biso      1.000     O          -0.811099           
         O33       1.0000    0.58620   0.15260   0.66500   Biso      1.000     O          -0.538262           
         O34       1.0000    0.99710   0.80870   0.42905   Biso      1.000     O          -0.615266           
         O35       1.0000    0.61160   0.15840   0.78135   Biso      1.000     O          -0.564132           
         O36       1.0000    0.26990   0.22280   0.56410   Biso      1.000     O          -0.64677  
         O37       1.0000    0.78400   0.07640   0.37866   Biso      1.000     O          -0.639197           
         O38       1.0000    0.94250   0.99170   0.34891   Biso      1.000     O          -0.576836           
         O39       1.0000    0.71330   0.86710   0.34088   Biso      1.000     O          -0.633829           
         O40       1.0000    0.78400   0.42360   0.87866   Biso      1.000     O          -0.639196 