
##########################################################################
#               Crystallographic Information Format file
#               Produced by PyCifRW module
#
#  This is a CIF file.  CIF has been adopted by the International
#  Union of Crystallography as the standard for data archiving and
#  transmission.
#
#  For information on this file format, follow the CIF links at
#  http://www.iucr.org
##########################################################################

data_image0

_cell_length_a                          10.438
_cell_length_b                          10.438
_cell_length_c                          13.853
_cell_angle_alpha                       90
_cell_angle_beta                        90
_cell_angle_gamma                       90
_symmetry_space_group_name_H-M          'P 1'
_symmetry_int_tables_number             1
loop_
  _symmetry_equiv_pos_as_xyz
         'x, y, z' 
loop_
  _atom_site_label
  _atom_site_occupancy
  _atom_site_fract_x
  _atom_site_fract_y
  _atom_site_fract_z
  _atom_site_thermal_displace_type
  _atom_site_B_iso_or_equiv
  _atom_site_type_symbol
  _atom_site_charge
         C1        1.0000    0.58350   0.07760   0.62000   Biso      1.000     C          -0.091032           
         C2        1.0000    0.29210   0.52770   0.61790   Biso      1.000     C          0.608701  
         C3        1.0000    0.26740   0.41170   0.26570   Biso      1.000     C          0.608999  
         C4        1.0000    0.43370   0.79380   0.11270   Biso      1.000     C          -0.01778  
         C5        1.0000    0.52540   0.27780   0.69160   Biso      1.000     C          -0.103703           
         C6        1.0000    0.47580   0.91280   0.28820   Biso      1.000     C          -0.100034           
         C7        1.0000    0.56890   0.87070   0.71410   Biso      1.000     C          0.627997  
         C8        1.0000    0.52770   0.70790   0.36790   Biso      1.000     C          0.608701  
         C9        1.0000    0.87070   0.43110   0.46410   Biso      1.000     C          0.627997  
         C10       1.0000    0.49010   0.78060   0.28120   Biso      1.000     C          -0.015954           
         C11       1.0000    0.56120   0.01570   0.70840   Biso      1.000     C          -0.032216           
         C12       1.0000    0.12930   0.56890   0.96410   Biso      1.000     C          0.627997  
         C13       1.0000    0.52420   0.08720   0.78820   Biso      1.000     C          -0.100034           
         C14       1.0000    0.20620   0.43370   0.36270   Biso      1.000     C          -0.01778  
         C15       1.0000    0.27780   0.47460   0.44160   Biso      1.000     C          -0.103701           
         C16       1.0000    0.73260   0.58830   0.76570   Biso      1.000     C          0.608999  
         C17       1.0000    0.01570   0.43880   0.45840   Biso      1.000     C          -0.032218           
         C18       1.0000    0.43110   0.12930   0.21410   Biso      1.000     C          0.627997  
         C19       1.0000    0.79380   0.56630   0.86270   Biso      1.000     C          -0.01778  
         C20       1.0000    0.47230   0.29210   0.86790   Biso      1.000     C          0.608701  
         C21       1.0000    0.21940   0.49010   0.53120   Biso      1.000     C          -0.015954           
         C22       1.0000    0.47460   0.72220   0.19160   Biso      1.000     C          -0.103701           
         C23       1.0000    0.43880   0.98430   0.20840   Biso      1.000     C          -0.032218           
         C24       1.0000    0.72220   0.52540   0.94160   Biso      1.000     C          -0.103701           
         C25       1.0000    0.70790   0.47230   0.11790   Biso      1.000     C          0.608701  
         C26       1.0000    0.78060   0.50990   0.03120   Biso      1.000     C          -0.015954           
         C27       1.0000    0.08720   0.47580   0.53820   Biso      1.000     C          -0.100034           
         C28       1.0000    0.41650   0.92240   0.12000   Biso      1.000     C          -0.091018           
         C29       1.0000    0.98430   0.56120   0.95840   Biso      1.000     C          -0.032218           
         C30       1.0000    0.41170   0.73260   0.01570   Biso      1.000     C          0.608999  
         C31       1.0000    0.92240   0.58350   0.87000   Biso      1.000     C          -0.091018           
         C32       1.0000    0.50990   0.21940   0.78120   Biso      1.000     C          -0.015954           
         C33       1.0000    0.56630   0.20620   0.61270   Biso      1.000     C          -0.017766           
         C34       1.0000    0.91280   0.52420   0.03820   Biso      1.000     C          -0.100034           
         C35       1.0000    0.07760   0.41650   0.37000   Biso      1.000     C          -0.091018           
         C36       1.0000    0.58830   0.26740   0.51570   Biso      1.000     C          0.608998  
         H1        1.0000    0.38970   0.96990   0.06600   Biso      1.000     H          0.133197  
         H2        1.0000    0.61030   0.03010   0.56600   Biso      1.000     H          0.133198  
         H3        1.0000    0.50880   0.04610   0.84740   Biso      1.000     H          0.134415  
         H4        1.0000    0.63430   0.50830   0.93440   Biso      1.000     H          0.110166  
         H5        1.0000    0.04610   0.49120   0.59740   Biso      1.000     H          0.134415  
         H6        1.0000    0.96990   0.61030   0.81600   Biso      1.000     H          0.133197  
         H7        1.0000    0.03010   0.38970   0.31600   Biso      1.000     H          0.133197  
         H8        1.0000    0.50830   0.36570   0.68440   Biso      1.000     H          0.110166  
         H9        1.0000    0.49120   0.95390   0.34740   Biso      1.000     H          0.134415  
         H10       1.0000    0.95390   0.50880   0.09740   Biso      1.000     H          0.134415  
         H11       1.0000    0.49170   0.63430   0.18440   Biso      1.000     H          0.110166  
         H12       1.0000    0.36570   0.49170   0.43440   Biso      1.000     H          0.110166  
         La1       1.0000    0.39317   0.63319   0.81087   Biso      1.000     La          1.947816  
         La2       1.0000    0.36681   0.39317   0.06087   Biso      1.000     La          1.947816  
         La3       1.0000    0.60683   0.36681   0.31087   Biso      1.000     La          1.947816  
         La4       1.0000    0.63319   0.60683   0.56087   Biso      1.000     La          1.947816  
         O1        1.0000    0.59560   0.42060   0.11160   Biso      1.000     O          -0.699928           
         O2        1.0000    0.81920   0.45970   0.54450   Biso      1.000     O          -0.635607           
         O3        1.0000    0.24350   0.50780   0.70060   Biso      1.000     O          -0.57844  
         O4        1.0000    0.45970   0.18080   0.29450   Biso      1.000     O          -0.635607           
         O5        1.0000    0.49220   0.24350   0.95060   Biso      1.000     O          -0.57844  
         O6        1.0000    0.38740   0.44250   0.25320   Biso      1.000     O          -0.715714           
         O7        1.0000    0.36820   0.79800   0.94830   Biso      1.000     O          -0.55591  
         O8        1.0000    0.63180   0.20200   0.44830   Biso      1.000     O          -0.55591  
         O9        1.0000    0.40440   0.57940   0.61160   Biso      1.000     O          -0.699928           
         O10       1.0000    0.81120   0.40390   0.38960   Biso      1.000     O          -0.624986           
         O11       1.0000    0.79800   0.63180   0.69830   Biso      1.000     O          -0.55591  
         O12       1.0000    0.55750   0.38740   0.50320   Biso      1.000     O          -0.715715           
         O13       1.0000    0.18880   0.59610   0.88960   Biso      1.000     O          -0.624986           
         O14       1.0000    0.40390   0.18880   0.13960   Biso      1.000     O          -0.624986           
         O15       1.0000    0.42060   0.40440   0.86160   Biso      1.000     O          -0.699928           
         O16       1.0000    0.44250   0.61260   0.00320   Biso      1.000     O          -0.715714           
         O17       1.0000    0.75650   0.49220   0.20060   Biso      1.000     O          -0.57844  
         O18       1.0000    0.57940   0.59560   0.36160   Biso      1.000     O          -0.699928           
         O19       1.0000    0.54030   0.81920   0.79450   Biso      1.000     O          -0.635607           
         O20       1.0000    0.50780   0.75650   0.45060   Biso      1.000     O          -0.57844  
         O21       1.0000    0.18080   0.54030   0.04450   Biso      1.000     O          -0.635607           
         O22       1.0000    0.61260   0.55750   0.75320   Biso      1.000     O          -0.715714           
         O23       1.0000    0.59610   0.81120   0.63960   Biso      1.000     O          -0.624986           
         O24       1.0000    0.20200   0.36820   0.19830   Biso      1.000     O          -0.55591 