
##########################################################################
#               Crystallographic Information Format file
#               Produced by PyCifRW module
#
#  This is a CIF file.  CIF has been adopted by the International
#  Union of Crystallography as the standard for data archiving and
#  transmission.
#
#  For information on this file format, follow the CIF links at
#  http://www.iucr.org
##########################################################################

data_image0

_cell_length_a                          27.8342
_cell_length_b                          27.8342
_cell_length_c                          6.2421
_cell_angle_alpha                       90
_cell_angle_beta                        90
_cell_angle_gamma                       120
_symmetry_space_group_name_H-M          'P 1'
_symmetry_int_tables_number             1
loop_
  _symmetry_equiv_pos_as_xyz
         'x, y, z' 
loop_
  _atom_site_label
  _atom_site_occupancy
  _atom_site_fract_x
  _atom_site_fract_y
  _atom_site_fract_z
  _atom_site_thermal_displace_type
  _atom_site_B_iso_or_equiv
  _atom_site_type_symbol
  _atom_site_charge
         C1        1.0000    0.10363   0.31997   0.06157   Biso      1.000     C          -0.075429           
         C2        1.0000    0.38857   0.21353   0.68833   Biso      1.000     C          -0.023283           
         C3        1.0000    0.65330   0.88300   0.60510   Biso      1.000     C          -0.07001900000000001          
         C4        1.0000    0.62257   0.84270   0.25510   Biso      1.000     C          0.011519  
         C5        1.0000    0.72190   0.88020   0.35500   Biso      1.000     C          -0.020914           
         C6        1.0000    0.55346   0.04410   0.92177   Biso      1.000     C          0.018340000000000002          
         C7        1.0000    0.11320   0.28924   0.41157   Biso      1.000     C          0.017827000000000003          
         C8        1.0000    0.17503   0.38857   0.31167   Biso      1.000     C          -0.020511           
         C9        1.0000    0.43697   0.98663   0.72823   Biso      1.000     C          -0.071273           
         C10       1.0000    0.44654   0.95590   0.07823   Biso      1.000     C          0.011176  
         C11       1.0000    0.50837   0.05523   0.97833   Biso      1.000     C          -0.021077000000000002         
         C12       1.0000    0.77030   0.65330   0.39490   Biso      1.000     C          -0.07689700000000001          
         C13       1.0000    0.77987   0.62257   0.74490   Biso      1.000     C          0.017884999999999998          
         C14       1.0000    0.84170   0.72190   0.64500   Biso      1.000     C          -0.023312           
         C15       1.0000    0.21633   0.89637   0.06157   Biso      1.000     C          -0.07135599999999999          
         C16       1.0000    0.17603   0.88680   0.41157   Biso      1.000     C          0.010848  
         C17       1.0000    0.21353   0.82497   0.31167   Biso      1.000     C          -0.021554           
         C18       1.0000    0.54967   0.56303   0.72823   Biso      1.000     C          -0.07739800000000001          
         C19       1.0000    0.28924   0.17603   0.58843   Biso      1.000     C          0.018427000000000002          
         C20       1.0000    0.50937   0.55346   0.07823   Biso      1.000     C          0.017821  
         C21       1.0000    0.31997   0.21633   0.93843   Biso      1.000     C          -0.080881           
         C22       1.0000    0.95590   0.50937   0.92177   Biso      1.000     C          0.022794  
         C23       1.0000    0.49163   0.94477   0.02167   Biso      1.000     C          -0.023303           
         C24       1.0000    0.89637   0.68003   0.93843   Biso      1.000     C          -0.069749           
         C25       1.0000    0.88680   0.71076   0.58843   Biso      1.000     C          0.011976  
         C26       1.0000    0.82497   0.61143   0.68833   Biso      1.000     C          -0.021303           
         C27       1.0000    0.22970   0.34670   0.60510   Biso      1.000     C          -0.07032100000000001          
         C28       1.0000    0.22013   0.37743   0.25510   Biso      1.000     C          0.011897  
         C29       1.0000    0.15830   0.27810   0.35500   Biso      1.000     C          -0.020612000000000002         
         C30       1.0000    0.45033   0.43697   0.27177   Biso      1.000     C          -0.070038           
         C31       1.0000    0.49063   0.44654   0.92177   Biso      1.000     C          0.0114    
         C32       1.0000    0.45313   0.50837   0.02167   Biso      1.000     C          -0.020942           
         C33       1.0000    0.78367   0.10363   0.93843   Biso      1.000     C          -0.069691           
         C34       1.0000    0.82397   0.11320   0.58843   Biso      1.000     C          0.011625  
         C35       1.0000    0.78647   0.17503   0.68833   Biso      1.000     C          -0.021618000000000002         
         C36       1.0000    0.11700   0.77030   0.60510   Biso      1.000     C          -0.07999400000000001          
         C37       1.0000    0.15730   0.77987   0.25510   Biso      1.000     C          0.017266999999999998          
         C38       1.0000    0.11980   0.84170   0.35500   Biso      1.000     C          -0.022994           
         C39       1.0000    0.98663   0.54967   0.27177   Biso      1.000     C          -0.075962           
         C40       1.0000    0.05523   0.54687   0.02167   Biso      1.000     C          -0.021465           
         C41       1.0000    0.54687   0.49163   0.97833   Biso      1.000     C          -0.023486           
         C42       1.0000    0.56303   0.01337   0.27177   Biso      1.000     C          -0.08035  
         C43       1.0000    0.88300   0.22970   0.39490   Biso      1.000     C          -0.078903           
         C44       1.0000    0.88020   0.15830   0.64500   Biso      1.000     C          -0.023012           
         C45       1.0000    0.37743   0.15730   0.74490   Biso      1.000     C          0.011386  
         C46       1.0000    0.84270   0.22013   0.74490   Biso      1.000     C          0.017057  
         C47       1.0000    0.04410   0.49063   0.07823   Biso      1.000     C          0.021667  
         C48       1.0000    0.34670   0.11700   0.39490   Biso      1.000     C          -0.071213           
         C49       1.0000    0.68003   0.78367   0.06157   Biso      1.000     C          -0.077908           
         C50       1.0000    0.71076   0.82397   0.41157   Biso      1.000     C          0.017769  
         C51       1.0000    0.61143   0.78647   0.31167   Biso      1.000     C          -0.023733           
         C52       1.0000    0.27810   0.11980   0.64500   Biso      1.000     C          -0.020668000000000002         
         C53       1.0000    0.94477   0.45313   0.97833   Biso      1.000     C          -0.02024  
         C54       1.0000    0.01337   0.45033   0.72823   Biso      1.000     C          -0.075624           
         N1        1.0000    0.65824   0.77792   0.28967   Biso      1.000     N          -0.07893700000000001          
         N2        1.0000    0.45301   0.00842   0.95633   Biso      1.000     N          -0.077736           
         N3        1.0000    0.67509   0.88875   0.37700   Biso      1.000     N          -0.078425           
         N4        1.0000    0.44458   0.45301   0.04367   Biso      1.000     N          -0.07861  
         N5        1.0000    0.99158   0.44458   0.95633   Biso      1.000     N          -0.076137           
         N6        1.0000    0.77792   0.11967   0.71033   Biso      1.000     N          -0.077972           
         N7        1.0000    0.55542   0.54699   0.95633   Biso      1.000     N          -0.078983           
         N8        1.0000    0.00842   0.55542   0.04367   Biso      1.000     N          -0.07586799999999999          
         N9        1.0000    0.21366   0.32491   0.37700   Biso      1.000     N          -0.077708           
         N10       1.0000    0.88875   0.21366   0.62300   Biso      1.000     N          -0.078592           
         N11       1.0000    0.34176   0.22208   0.71033   Biso      1.000     N          -0.078648           
         N12       1.0000    0.11967   0.34176   0.28967   Biso      1.000     N          -0.079488           
         N13       1.0000    0.11125   0.78634   0.37700   Biso      1.000     N          -0.078458           
         N14       1.0000    0.54699   0.99158   0.04367   Biso      1.000     N          -0.07839600000000001          
         N15       1.0000    0.22208   0.88033   0.28967   Biso      1.000     N          -0.077827           
         N16       1.0000    0.78634   0.67509   0.62300   Biso      1.000     N          -0.079081           
         N17       1.0000    0.88033   0.65824   0.71033   Biso      1.000     N          -0.078568           
         N18       1.0000    0.32491   0.11125   0.62300   Biso      1.000     N          -0.077904           
         Ni1       1.0000    0.94307   0.63679   0.61412   Biso      1.000     Ni          0.983474  
         Ni2       1.0000    0.02706   0.72360   0.28079   Biso      1.000     Ni          0.9796100000000001  
         Ni3       1.0000    0.63679   0.69373   0.38588   Biso      1.000     Ni          0.9824299999999999  
         Ni4       1.0000    0.30627   0.94307   0.38588   Biso      1.000     Ni          0.9810190000000001  
         Ni5       1.0000    0.69373   0.05693   0.61412   Biso      1.000     Ni          0.981416  
         Ni6       1.0000    0.02987   0.63961   0.94746   Biso      1.000     Ni          0.9803139999999999  
         Ni7       1.0000    0.60973   0.97013   0.94746   Biso      1.000     Ni          0.9791770000000001  
         Ni8       1.0000    0.36321   0.30627   0.61412   Biso      1.000     Ni          0.9793299999999999  
         Ni9       1.0000    0.36039   0.39027   0.94746   Biso      1.000     Ni          0.983964  
         Ni10      1.0000    0.63961   0.60973   0.05254   Biso      1.000     Ni          0.9822069999999999  
         Ni11      1.0000    0.72360   0.69654   0.71921   Biso      1.000     Ni          0.982453  
         Ni12      1.0000    0.30346   0.02706   0.71921   Biso      1.000     Ni          0.9810409999999999  
         Ni13      1.0000    0.69654   0.97294   0.28079   Biso      1.000     Ni          0.9839620000000001  
         Ni14      1.0000    0.39027   0.02987   0.05254   Biso      1.000     Ni          0.980965  
         Ni15      1.0000    0.97294   0.27640   0.71921   Biso      1.000     Ni          0.982002  
         Ni16      1.0000    0.97013   0.36039   0.05254   Biso      1.000     Ni          0.985815  
         Ni17      1.0000    0.27640   0.30346   0.28079   Biso      1.000     Ni          0.98208   
         Ni18      1.0000    0.05693   0.36321   0.38588   Biso      1.000     Ni          0.9841200000000001  
         O1        1.0000    0.37911   0.38851   0.61707   Biso      1.000     O          -0.727745           
         O2        1.0000    0.00262   0.71986   0.60210   Biso      1.000     O          -0.702213           
         O3        1.0000    0.61347   0.94943   0.26877   Biso      1.000     O          -0.702164           
         O4        1.0000    0.28014   0.28276   0.60210   Biso      1.000     O          -0.701309           
         O5        1.0000    0.94943   0.33595   0.73123   Biso      1.000     O          -0.7046680000000001           
         O6        1.0000    0.85671   0.57400   0.15023   Biso      1.000     O          -0.564976           
         O7        1.0000    0.94483   0.65727   0.28373   Biso      1.000     O          -0.727903           
         O8        1.0000    0.61149   0.99061   0.61707   Biso      1.000     O          -0.72488  
         O9        1.0000    0.71730   0.14329   0.15023   Biso      1.000     O          -0.5615   
         O10       1.0000    0.52337   0.90734   0.48357   Biso      1.000     O          -0.5564560000000001           
         O11       1.0000    0.71245   0.05517   0.28373   Biso      1.000     O          -0.724376           
         O12       1.0000    0.94681   0.61609   0.93543   Biso      1.000     O          -0.70015  
         O13       1.0000    0.19004   0.24067   0.81690   Biso      1.000     O          -0.561874           
         O14       1.0000    0.24067   0.05063   0.18310   Biso      1.000     O          -0.561893           
         O15       1.0000    0.66929   0.05319   0.93543   Biso      1.000     O          -0.701387           
         O16       1.0000    0.99061   0.37911   0.38293   Biso      1.000     O          -0.728916           
         O17       1.0000    0.90734   0.38396   0.51643   Biso      1.000     O          -0.566059           
         O18       1.0000    0.28276   0.00262   0.39790   Biso      1.000     O          -0.700575           
         O19       1.0000    0.38396   0.47663   0.48357   Biso      1.000     O          -0.564345           
         O20       1.0000    0.33595   0.38653   0.26877   Biso      1.000     O          -0.700988           
         O21       1.0000    0.27816   0.32394   0.95040   Biso      1.000     O          -0.7246199999999999           
         O22       1.0000    0.32394   0.04578   0.04960   Biso      1.000     O          -0.723842           
         O23       1.0000    0.66405   0.61347   0.73123   Biso      1.000     O          -0.702933           
         O24       1.0000    0.05063   0.80996   0.81690   Biso      1.000     O          -0.5575899999999999           
         O25       1.0000    0.04578   0.72184   0.95040   Biso      1.000     O          -0.7266050000000001           
         O26       1.0000    0.94937   0.19004   0.18310   Biso      1.000     O          -0.558389           
         O27       1.0000    0.95422   0.27816   0.04960   Biso      1.000     O          -0.725783           
         O28       1.0000    0.38653   0.05057   0.73123   Biso      1.000     O          -0.7007140000000001           
         O29       1.0000    0.38851   0.00939   0.38293   Biso      1.000     O          -0.723951           
         O30       1.0000    0.47663   0.09266   0.51643   Biso      1.000     O          -0.562051           
         O31       1.0000    0.99738   0.28014   0.39790   Biso      1.000     O          -0.703283           
         O32       1.0000    0.71986   0.71724   0.39790   Biso      1.000     O          -0.7026399999999999           
         O33       1.0000    0.72184   0.67606   0.04960   Biso      1.000     O          -0.728617           
         O34       1.0000    0.80996   0.75933   0.18310   Biso      1.000     O          -0.557996           
         O35       1.0000    0.33071   0.94681   0.06457   Biso      1.000     O          -0.700523           
         O36       1.0000    0.28755   0.94483   0.71627   Biso      1.000     O          -0.7236279999999999           
         O37       1.0000    0.28270   0.85671   0.84977   Biso      1.000     O          -0.562068           
         O38       1.0000    0.61604   0.52337   0.51643   Biso      1.000     O          -0.558311           
         O39       1.0000    0.62089   0.61149   0.38293   Biso      1.000     O          -0.7289180000000001           
         O40       1.0000    0.05517   0.34273   0.71627   Biso      1.000     O          -0.729945           
         O41       1.0000    0.05319   0.38391   0.06457   Biso      1.000     O          -0.704603           
         O42       1.0000    0.14329   0.42600   0.84977   Biso      1.000     O          -0.562814           
         O43       1.0000    0.38391   0.33071   0.93543   Biso      1.000     O          -0.7021270000000001           
         O44       1.0000    0.05057   0.66405   0.26877   Biso      1.000     O          -0.700909           
         O45       1.0000    0.00939   0.62089   0.61707   Biso      1.000     O          -0.724857           
         O46       1.0000    0.57400   0.71730   0.84977   Biso      1.000     O          -0.55819  
         O47       1.0000    0.65727   0.71245   0.71627   Biso      1.000     O          -0.72883  
         O48       1.0000    0.34273   0.28755   0.28373   Biso      1.000     O          -0.724842           
         O49       1.0000    0.42600   0.28270   0.15023   Biso      1.000     O          -0.556321           
         O50       1.0000    0.61609   0.66929   0.06457   Biso      1.000     O          -0.7028369999999999           
         O51       1.0000    0.09266   0.61604   0.48357   Biso      1.000     O          -0.5619810000000001           
         O52       1.0000    0.71724   0.99738   0.60210   Biso      1.000     O          -0.700785           
         O53       1.0000    0.75933   0.94937   0.81690   Biso      1.000     O          -0.564267           
         O54       1.0000    0.67606   0.95422   0.95040   Biso      1.000     O          -0.72755  
         P1        1.0000    0.37265   0.28238   0.09583   Biso      1.000     P          1.16933   
         P2        1.0000    0.05095   0.75693   0.76250   Biso      1.000     P          1.169425  
         P3        1.0000    0.29402   0.05095   0.23750   Biso      1.000     P          1.163484  
         P4        1.0000    0.28238   0.90974   0.90417   Biso      1.000     P          1.163404  
         P5        1.0000    0.62735   0.71762   0.90417   Biso      1.000     P          1.170007  
         P6        1.0000    0.57640   0.96069   0.42917   Biso      1.000     P          1.169367  
         P7        1.0000    0.94905   0.24307   0.23750   Biso      1.000     P          1.1700110000000001  
         P8        1.0000    0.61572   0.57640   0.57083   Biso      1.000     P          1.170168  
         P9        1.0000    0.71762   0.09026   0.09583   Biso      1.000     P          1.163934  
         P10       1.0000    0.75693   0.70598   0.23750   Biso      1.000     P          1.169469  
         P11       1.0000    0.03931   0.61572   0.42917   Biso      1.000     P          1.1635659999999999  
         P12       1.0000    0.24307   0.29402   0.76250   Biso      1.000     P          1.163801  
         P13       1.0000    0.96069   0.38428   0.57083   Biso      1.000     P          1.165292  
         P14       1.0000    0.90974   0.62735   0.09583   Biso      1.000     P          1.164293  
         P15       1.0000    0.42360   0.03931   0.57083   Biso      1.000     P          1.1636739999999999  
         P16       1.0000    0.09026   0.37265   0.90417   Biso      1.000     P          1.170992  
         P17       1.0000    0.38428   0.42360   0.42917   Biso      1.000     P          1.1640709999999999  
         P18       1.0000    0.70598   0.94905   0.76250   Biso      1.000     P          1.163726 