
##########################################################################
#               Crystallographic Information Format file
#               Produced by PyCifRW module
#
#  This is a CIF file.  CIF has been adopted by the International
#  Union of Crystallography as the standard for data archiving and
#  transmission.
#
#  For information on this file format, follow the CIF links at
#  http://www.iucr.org
##########################################################################

data_image0

_cell_length_a                          27.9144
_cell_length_b                          27.9144
_cell_length_c                          6.1655
_cell_angle_alpha                       90
_cell_angle_beta                        90
_cell_angle_gamma                       120
_symmetry_space_group_name_H-M          'P 1'
_symmetry_int_tables_number             1
loop_
  _symmetry_equiv_pos_as_xyz
         'x, y, z' 
loop_
  _atom_site_label
  _atom_site_occupancy
  _atom_site_fract_x
  _atom_site_fract_y
  _atom_site_fract_z
  _atom_site_thermal_displace_type
  _atom_site_B_iso_or_equiv
  _atom_site_type_symbol
  _atom_site_charge
         C1        1.0000    0.88023   0.22917   0.38277   Biso      1.000     C          -0.078856           
         C2        1.0000    0.22027   0.37523   0.23603   Biso      1.000     C          0.025292  
         C3        1.0000    0.56250   0.01560   0.28390   Biso      1.000     C          -0.06612699999999999          
         C4        1.0000    0.48910   0.94380   0.01520   Biso      1.000     C          -0.010054           
         C5        1.0000    0.55360   0.04190   0.90270   Biso      1.000     C          0.026425999999999998          
         C6        1.0000    0.78803   0.17757   0.68187   Biso      1.000     C          -0.009164           
         C7        1.0000    0.87863   0.15577   0.65147   Biso      1.000     C          -0.000633           
         C8        1.0000    0.84503   0.22027   0.76397   Biso      1.000     C          0.040598  
         C9        1.0000    0.21357   0.89583   0.04943   Biso      1.000     C          -0.078981           
         C10       1.0000    0.21197   0.82243   0.31813   Biso      1.000     C          -0.000615           
         C11       1.0000    0.17837   0.88693   0.43063   Biso      1.000     C          0.040368  
         C12       1.0000    0.54690   0.56250   0.71610   Biso      1.000     C          -0.0791   
         C13       1.0000    0.54530   0.48910   0.98480   Biso      1.000     C          -0.000534           
         C14       1.0000    0.51170   0.55360   0.09730   Biso      1.000     C          0.040136  
         C15       1.0000    0.34893   0.11977   0.38277   Biso      1.000     C          -0.062058           
         C16       1.0000    0.27713   0.12137   0.65147   Biso      1.000     C          -0.006469           
         C17       1.0000    0.37523   0.15497   0.76397   Biso      1.000     C          0.030758999999999998          
         C18       1.0000    0.68227   0.78643   0.04943   Biso      1.000     C          -0.06584  
         C19       1.0000    0.15577   0.27713   0.34853   Biso      1.000     C          -0.010477           
         C20       1.0000    0.61047   0.78803   0.31813   Biso      1.000     C          -0.009662           
         C21       1.0000    0.22917   0.34893   0.61723   Biso      1.000     C          -0.067466           
         C22       1.0000    0.82243   0.61047   0.68187   Biso      1.000     C          -0.009997           
         C23       1.0000    0.82163   0.11307   0.56937   Biso      1.000     C          0.026119  
         C24       1.0000    0.11977   0.77083   0.61723   Biso      1.000     C          -0.065304           
         C25       1.0000    0.12137   0.84423   0.34853   Biso      1.000     C          -0.008784           
         C26       1.0000    0.15497   0.77973   0.23603   Biso      1.000     C          0.026631000000000002          
         C27       1.0000    0.45310   0.43750   0.28390   Biso      1.000     C          -0.066495           
         C28       1.0000    0.45470   0.51090   0.01520   Biso      1.000     C          -0.009149           
         C29       1.0000    0.48830   0.44640   0.90270   Biso      1.000     C          0.027159  
         C30       1.0000    0.31773   0.21357   0.95057   Biso      1.000     C          -0.066824           
         C31       1.0000    0.38953   0.21197   0.68187   Biso      1.000     C          -0.011675           
         C32       1.0000    0.29143   0.17837   0.56937   Biso      1.000     C          0.023423  
         C33       1.0000    0.65107   0.88023   0.61723   Biso      1.000     C          -0.079588           
         C34       1.0000    0.72287   0.87863   0.34853   Biso      1.000     C          -0.0013599999999999999        
         C35       1.0000    0.62477   0.84503   0.23603   Biso      1.000     C          0.039504000000000004          
         C36       1.0000    0.98440   0.54690   0.28390   Biso      1.000     C          -0.079713           
         C37       1.0000    0.05620   0.54530   0.01520   Biso      1.000     C          -0.001478           
         C38       1.0000    0.95810   0.51170   0.90270   Biso      1.000     C          0.039523  
         C39       1.0000    0.89583   0.68227   0.95057   Biso      1.000     C          -0.066173           
         C40       1.0000    0.88693   0.70857   0.56937   Biso      1.000     C          0.026572000000000002          
         C41       1.0000    0.70857   0.82163   0.43063   Biso      1.000     C          0.026562  
         C42       1.0000    0.78643   0.10417   0.95057   Biso      1.000     C          -0.065965           
         C43       1.0000    0.43750   0.98440   0.71610   Biso      1.000     C          -0.077515           
         C44       1.0000    0.84423   0.72287   0.65147   Biso      1.000     C          0.000322  
         C45       1.0000    0.77973   0.62477   0.76397   Biso      1.000     C          0.039689999999999996          
         C46       1.0000    0.51090   0.05620   0.98480   Biso      1.000     C          7.099999999999999e-05         
         C47       1.0000    0.44640   0.95810   0.09730   Biso      1.000     C          0.039527  
         C48       1.0000    0.04190   0.48830   0.09730   Biso      1.000     C          0.027107999999999997          
         C49       1.0000    0.01560   0.45310   0.71610   Biso      1.000     C          -0.065264           
         C50       1.0000    0.94380   0.45470   0.98480   Biso      1.000     C          -0.009031           
         C51       1.0000    0.77083   0.65107   0.38277   Biso      1.000     C          -0.077557           
         C52       1.0000    0.11307   0.29143   0.43063   Biso      1.000     C          0.039528  
         C53       1.0000    0.17757   0.38953   0.31813   Biso      1.000     C          -0.00011899999999999999       
         C54       1.0000    0.10417   0.31773   0.04943   Biso      1.000     C          -0.07737899999999999          
         N1        1.0000    0.00740   0.55250   0.05350   Biso      1.000     N          -0.09752000000000001          
         N2        1.0000    0.34073   0.21917   0.72017   Biso      1.000     N          -0.091179           
         N3        1.0000    0.54510   0.99260   0.05350   Biso      1.000     N          -0.094715           
         N4        1.0000    0.78083   0.12157   0.72017   Biso      1.000     N          -0.09270700000000001          
         N5        1.0000    0.44750   0.45490   0.05350   Biso      1.000     N          -0.09459  
         N6        1.0000    0.21917   0.87843   0.27983   Biso      1.000     N          -0.09941599999999999          
         N7        1.0000    0.45490   0.00740   0.94650   Biso      1.000     N          -0.097537           
         N8        1.0000    0.78823   0.67407   0.61317   Biso      1.000     N          -0.09933600000000001          
         N9        1.0000    0.87843   0.65927   0.72017   Biso      1.000     N          -0.094582           
         N10       1.0000    0.32593   0.11417   0.61317   Biso      1.000     N          -0.095697           
         N11       1.0000    0.99260   0.44750   0.94650   Biso      1.000     N          -0.094933           
         N12       1.0000    0.88583   0.21177   0.61317   Biso      1.000     N          -0.099422           
         N13       1.0000    0.55250   0.54510   0.94650   Biso      1.000     N          -0.097566           
         N14       1.0000    0.21177   0.32593   0.38683   Biso      1.000     N          -0.092314           
         N15       1.0000    0.67407   0.88583   0.38683   Biso      1.000     N          -0.097399           
         N16       1.0000    0.11417   0.78823   0.38683   Biso      1.000     N          -0.094832           
         N17       1.0000    0.65927   0.78083   0.27983   Biso      1.000     N          -0.092826           
         N18       1.0000    0.12157   0.34073   0.27983   Biso      1.000     N          -0.099268           
         Ni1       1.0000    0.63818   0.69530   0.38583   Biso      1.000     Ni          0.975992  
         Ni2       1.0000    0.02863   0.72378   0.28084   Biso      1.000     Ni          0.975002  
         Ni3       1.0000    0.02848   0.63804   0.94751   Biso      1.000     Ni          0.97019   
         Ni4       1.0000    0.69530   0.05711   0.61417   Biso      1.000     Ni          0.974873  
         Ni5       1.0000    0.69515   0.97137   0.28084   Biso      1.000     Ni          0.9700840000000001  
         Ni6       1.0000    0.36196   0.39045   0.94751   Biso      1.000     Ni          0.9732649999999999  
         Ni7       1.0000    0.36182   0.30470   0.61417   Biso      1.000     Ni          0.9762719999999999  
         Ni8       1.0000    0.30485   0.02863   0.71916   Biso      1.000     Ni          0.9772790000000001  
         Ni9       1.0000    0.97152   0.36196   0.05249   Biso      1.000     Ni          0.9763299999999999  
         Ni10      1.0000    0.27622   0.30485   0.28084   Biso      1.000     Ni          0.9706739999999999  
         Ni11      1.0000    0.97137   0.27622   0.71916   Biso      1.000     Ni          0.9713219999999999  
         Ni12      1.0000    0.30470   0.94289   0.38583   Biso      1.000     Ni          0.971464  
         Ni13      1.0000    0.72378   0.69515   0.71916   Biso      1.000     Ni          0.972619  
         Ni14      1.0000    0.60955   0.97152   0.94751   Biso      1.000     Ni          0.97255   
         Ni15      1.0000    0.05711   0.36182   0.38583   Biso      1.000     Ni          0.972159  
         Ni16      1.0000    0.63804   0.60955   0.05249   Biso      1.000     Ni          0.971081  
         Ni17      1.0000    0.94289   0.63818   0.61417   Biso      1.000     Ni          0.9728020000000001  
         Ni18      1.0000    0.39045   0.02848   0.05249   Biso      1.000     Ni          0.9719559999999999  
         O1        1.0000    0.76015   0.94803   0.83153   Biso      1.000     O          -0.534287           
         O2        1.0000    0.47878   0.09348   0.50180   Biso      1.000     O          -0.535413           
         O3        1.0000    0.39005   0.01154   0.37460   Biso      1.000     O          -0.7193430000000001           
         O4        1.0000    0.71863   0.14545   0.16487   Biso      1.000     O          -0.538496           
         O5        1.0000    0.66786   0.05421   0.93277   Biso      1.000     O          -0.689721           
         O6        1.0000    0.71184   0.05672   0.29207   Biso      1.000     O          -0.719059           
         O7        1.0000    0.38754   0.05301   0.73390   Biso      1.000     O          -0.69491  
         O8        1.0000    0.71968   0.99880   0.59943   Biso      1.000     O          -0.694368           
         O9        1.0000    0.00120   0.72087   0.59943   Biso      1.000     O          -0.689782           
         O10       1.0000    0.04518   0.72338   0.95873   Biso      1.000     O          -0.718907           
         O11       1.0000    0.05672   0.34487   0.70793   Biso      1.000     O          -0.718974           
         O12       1.0000    0.05421   0.38634   0.06723   Biso      1.000     O          -0.694782           
         O13       1.0000    0.14545   0.42681   0.83513   Biso      1.000     O          -0.535679           
         O14       1.0000    0.05197   0.81211   0.83153   Biso      1.000     O          -0.5386529999999999           
         O15       1.0000    0.37851   0.39005   0.62540   Biso      1.000     O          -0.715023           
         O16       1.0000    0.33453   0.38754   0.26610   Biso      1.000     O          -0.689369           
         O17       1.0000    0.42681   0.28137   0.16487   Biso      1.000     O          -0.536842           
         O18       1.0000    0.38634   0.33214   0.93277   Biso      1.000     O          -0.694083           
         O19       1.0000    0.34487   0.28816   0.29207   Biso      1.000     O          -0.71538  
         O20       1.0000    0.38530   0.47878   0.49820   Biso      1.000     O          -0.5355489999999999           
         O21       1.0000    0.67821   0.95482   0.95873   Biso      1.000     O          -0.715901           
         O22       1.0000    0.01154   0.62149   0.62540   Biso      1.000     O          -0.7157600000000001           
         O23       1.0000    0.65513   0.71184   0.70793   Biso      1.000     O          -0.719349           
         O24       1.0000    0.09348   0.61470   0.49820   Biso      1.000     O          -0.5343859999999999           
         O25       1.0000    0.05301   0.66547   0.26610   Biso      1.000     O          -0.694346           
         O26       1.0000    0.90652   0.38530   0.50180   Biso      1.000     O          -0.538251           
         O27       1.0000    0.94699   0.33453   0.73390   Biso      1.000     O          -0.690134           
         O28       1.0000    0.98846   0.37851   0.37460   Biso      1.000     O          -0.719245           
         O29       1.0000    0.28816   0.94328   0.70793   Biso      1.000     O          -0.717609           
         O30       1.0000    0.33214   0.94579   0.06723   Biso      1.000     O          -0.6951109999999999           
         O31       1.0000    0.28137   0.85455   0.83513   Biso      1.000     O          -0.5348069999999999           
         O32       1.0000    0.62149   0.60995   0.37460   Biso      1.000     O          -0.716208           
         O33       1.0000    0.66547   0.61246   0.73390   Biso      1.000     O          -0.694862           
         O34       1.0000    0.61470   0.52122   0.50180   Biso      1.000     O          -0.5341899999999999           
         O35       1.0000    0.32179   0.04518   0.04127   Biso      1.000     O          -0.718716           
         O36       1.0000    0.28032   0.00120   0.40057   Biso      1.000     O          -0.692779           
         O37       1.0000    0.23985   0.05197   0.16847   Biso      1.000     O          -0.535488           
         O38       1.0000    0.57319   0.71863   0.83513   Biso      1.000     O          -0.5383180000000001           
         O39       1.0000    0.61366   0.66786   0.06723   Biso      1.000     O          -0.690321           
         O40       1.0000    0.99880   0.27913   0.40057   Biso      1.000     O          -0.694982           
         O41       1.0000    0.95482   0.27662   0.04127   Biso      1.000     O          -0.716288           
         O42       1.0000    0.94803   0.18789   0.16847   Biso      1.000     O          -0.534758           
         O43       1.0000    0.85455   0.57319   0.16487   Biso      1.000     O          -0.536017           
         O44       1.0000    0.81211   0.76015   0.16847   Biso      1.000     O          -0.535447           
         O45       1.0000    0.72087   0.71968   0.40057   Biso      1.000     O          -0.694677           
         O46       1.0000    0.94579   0.61366   0.93277   Biso      1.000     O          -0.689996           
         O47       1.0000    0.72338   0.67821   0.04127   Biso      1.000     O          -0.718957           
         O48       1.0000    0.27662   0.32179   0.95873   Biso      1.000     O          -0.7147939999999999           
         O49       1.0000    0.27913   0.28032   0.59943   Biso      1.000     O          -0.689699           
         O50       1.0000    0.94328   0.65513   0.29207   Biso      1.000     O          -0.715445           
         O51       1.0000    0.18789   0.23985   0.83153   Biso      1.000     O          -0.534975           
         O52       1.0000    0.60995   0.98846   0.62540   Biso      1.000     O          -0.715291           
         O53       1.0000    0.61246   0.94699   0.26610   Biso      1.000     O          -0.689928           
         O54       1.0000    0.52122   0.90652   0.49820   Biso      1.000     O          -0.535874           
         P1        1.0000    0.70567   0.94836   0.76333   Biso      1.000     P          1.115446  
         P2        1.0000    0.75730   0.70567   0.23667   Biso      1.000     P          1.115298  
         P3        1.0000    0.03900   0.61503   0.43000   Biso      1.000     P          1.115263  
         P4        1.0000    0.71830   0.09064   0.09667   Biso      1.000     P          1.110794  
         P5        1.0000    0.42397   0.03900   0.57000   Biso      1.000     P          1.115273  
         P6        1.0000    0.29433   0.05164   0.23667   Biso      1.000     P          1.10972   
         P7        1.0000    0.62767   0.71830   0.90333   Biso      1.000     P          1.111494  
         P8        1.0000    0.09064   0.37233   0.90333   Biso      1.000     P          1.115459  
         P9        1.0000    0.90936   0.62767   0.09667   Biso      1.000     P          1.111222  
         P10       1.0000    0.57603   0.96100   0.43000   Biso      1.000     P          1.110992  
         P11       1.0000    0.05164   0.75730   0.76333   Biso      1.000     P          1.110773  
         P12       1.0000    0.24270   0.29433   0.76333   Biso      1.000     P          1.110517  
         P13       1.0000    0.37233   0.28170   0.09667   Biso      1.000     P          1.109294  
         P14       1.0000    0.94836   0.24270   0.23667   Biso      1.000     P          1.116064  
         P15       1.0000    0.38497   0.42397   0.43000   Biso      1.000     P          1.110517  
         P16       1.0000    0.96100   0.38497   0.57000   Biso      1.000     P          1.111325  
         P17       1.0000    0.61503   0.57603   0.57000   Biso      1.000     P          1.115846  
         P18       1.0000    0.28170   0.90936   0.90333   Biso      1.000     P          1.116248 