
##########################################################################
#               Crystallographic Information Format file
#               Produced by PyCifRW module
#
#  This is a CIF file.  CIF has been adopted by the International
#  Union of Crystallography as the standard for data archiving and
#  transmission.
#
#  For information on this file format, follow the CIF links at
#  http://www.iucr.org
##########################################################################

data_image0

_cell_length_a                          10.722
_cell_length_b                          10.722
_cell_length_c                          10.722
_cell_angle_alpha                       67.5085
_cell_angle_beta                        76.4138
_cell_angle_gamma                       112.491
_symmetry_space_group_name_H-M          'P 1'
_symmetry_int_tables_number             1
loop_
  _symmetry_equiv_pos_as_xyz
         'x, y, z' 
loop_
  _atom_site_label
  _atom_site_occupancy
  _atom_site_fract_x
  _atom_site_fract_y
  _atom_site_fract_z
  _atom_site_thermal_displace_type
  _atom_site_B_iso_or_equiv
  _atom_site_type_symbol
  _atom_site_charge
         C1        1.0000    0.24040   0.20800   0.70600   Biso      1.000     C          0.069502  
         C2        1.0000    0.19690   0.80770   0.70860   Biso      1.000     C          0.059312  
         C3        1.0000    0.08600   0.79200   0.96760   Biso      1.000     C          0.069447  
         C4        1.0000    0.48370   0.19230   0.61080   Biso      1.000     C          0.059251  
         C5        1.0000    0.29140   0.09450   0.51630   Biso      1.000     C          0.059266  
         C6        1.0000    0.03240   0.94640   0.75960   Biso      1.000     C          0.06951   
         C7        1.0000    0.70600   0.94640   0.08600   Biso      1.000     C          0.069514  
         C8        1.0000    0.61080   0.09450   0.19690   Biso      1.000     C          0.059262  
         C9        1.0000    0.96760   0.05360   0.24040   Biso      1.000     C          0.069476  
         C10       1.0000    0.70860   0.90550   0.48370   Biso      1.000     C          0.059306  
         C11       1.0000    0.75960   0.79200   0.29400   Biso      1.000     C          0.069423  
         C12       1.0000    0.51630   0.80770   0.38920   Biso      1.000     C          0.059322  
         C13       1.0000    0.91400   0.20800   0.03240   Biso      1.000     C          0.069526  
         C14       1.0000    0.80310   0.19230   0.29140   Biso      1.000     C          0.059241  
         C15       1.0000    0.29400   0.05360   0.91400   Biso      1.000     C          0.06948   
         C16       1.0000    0.38920   0.90550   0.80310   Biso      1.000     C          0.059302  
         Mn1       1.0000    0.69413   0.89115   0.80298   Biso      1.000     Mn          1.072021  
         Mn2       1.0000    0.19702   0.50289   0.69413   Biso      1.000     Mn          1.071989  
         Mn3       1.0000    0.80298   0.49711   0.30587   Biso      1.000     Mn          1.071562  
         Mn4       1.0000    0.30587   0.10885   0.19702   Biso      1.000     Mn          1.071794  
         Mo1       1.0000    0.74830   0.00000   0.25170   Biso      1.000     Mo          0.487232  
         Mo2       1.0000    0.25170   0.00000   0.74830   Biso      1.000     Mo          0.487232  
         N1        1.0000    0.60570   0.30140   0.53150   Biso      1.000     N          -0.396619           
         N2        1.0000    0.24180   0.32210   0.68350   Biso      1.000     N          -0.389875           
         N3        1.0000    0.30430   0.13720   0.39430   Biso      1.000     N          -0.396623           
         N4        1.0000    0.91970   0.92530   0.75820   Biso      1.000     N          -0.389866           
         N5        1.0000    0.46850   0.86280   0.83290   Biso      1.000     N          -0.396662           
         N6        1.0000    0.31650   0.07470   0.00560   Biso      1.000     N          -0.389834           
         N7        1.0000    0.83290   0.30140   0.30430   Biso      1.000     N          -0.396612           
         N8        1.0000    0.39430   0.69860   0.46850   Biso      1.000     N          -0.396678           
         N9        1.0000    0.75820   0.67790   0.31650   Biso      1.000     N          -0.389808           
         N10       1.0000    0.69570   0.86280   0.60570   Biso      1.000     N          -0.39666  
         N11       1.0000    0.08030   0.07470   0.24180   Biso      1.000     N          -0.389833           
         N12       1.0000    0.53150   0.13720   0.16710   Biso      1.000     N          -0.396627           
         N13       1.0000    0.68350   0.92530   0.99440   Biso      1.000     N          -0.389868           
         N14       1.0000    0.99440   0.67790   0.08030   Biso      1.000     N          -0.389834           
         N15       1.0000    0.00560   0.32210   0.91970   Biso      1.000     N          -0.389902           
         N16       1.0000    0.16710   0.69860   0.69570   Biso      1.000     N          -0.39667 