
##########################################################################
#               Crystallographic Information Format file
#               Produced by PyCifRW module
#
#  This is a CIF file.  CIF has been adopted by the International
#  Union of Crystallography as the standard for data archiving and
#  transmission.
#
#  For information on this file format, follow the CIF links at
#  http://www.iucr.org
##########################################################################

data_image0

_cell_length_a                          10.7435
_cell_length_b                          10.7435
_cell_length_c                          10.7435
_cell_angle_alpha                       103.564
_cell_angle_beta                        112.503
_cell_angle_gamma                       112.503
_symmetry_space_group_name_H-M          'P 1'
_symmetry_int_tables_number             1
loop_
  _symmetry_equiv_pos_as_xyz
         'x, y, z' 
loop_
  _atom_site_label
  _atom_site_occupancy
  _atom_site_fract_x
  _atom_site_fract_y
  _atom_site_fract_z
  _atom_site_thermal_displace_type
  _atom_site_B_iso_or_equiv
  _atom_site_type_symbol
  _atom_site_charge
         C1        1.0000    0.79114   0.53224   0.58530   Biso      1.000     C          0.06969199999999999           
         C2        1.0000    0.80774   0.79271   0.69659   Biso      1.000     C          0.060017999999999995          
         C3        1.0000    0.20886   0.79416   0.74110   Biso      1.000     C          0.06968099999999999           
         C4        1.0000    0.19226   0.88885   0.98497   Biso      1.000     C          0.060034000000000004          
         C5        1.0000    0.09612   0.98497   0.79271   Biso      1.000     C          0.060051  
         C6        1.0000    0.05306   0.58530   0.79416   Biso      1.000     C          0.069726  
         C7        1.0000    0.05306   0.25890   0.46776   Biso      1.000     C          0.069725  
         C8        1.0000    0.09612   0.30341   0.11115   Biso      1.000     C          0.060052  
         C9        1.0000    0.94694   0.41470   0.20584   Biso      1.000     C          0.069678  
         C10       1.0000    0.90388   0.01503   0.20729   Biso      1.000     C          0.060007000000000005          
         C11       1.0000    0.20886   0.46776   0.41470   Biso      1.000     C          0.06968300000000001           
         C12       1.0000    0.80774   0.11115   0.01503   Biso      1.000     C          0.060033  
         C13       1.0000    0.79114   0.20584   0.25890   Biso      1.000     C          0.06969   
         C14       1.0000    0.19226   0.20729   0.30341   Biso      1.000     C          0.060020000000000004          
         C15       1.0000    0.94694   0.74110   0.53224   Biso      1.000     C          0.069677  
         C16       1.0000    0.90388   0.69659   0.88885   Biso      1.000     C          0.060009  
         Mn1       1.0000    0.10956   0.30316   0.80640   Biso      1.000     Mn          1.073648  
         Mn2       1.0000    0.49676   0.19360   0.30316   Biso      1.000     Mn          1.073508  
         Mn3       1.0000    0.50324   0.80640   0.69684   Biso      1.000     Mn          1.0734270000000001  
         Mn4       1.0000    0.89044   0.69684   0.19360   Biso      1.000     Mn          1.073391  
         Mo1       1.0000    0.00000   0.24813   0.24813   Biso      1.000     Mo          0.47894200000000003           
         Mo2       1.0000    0.00000   0.75187   0.75187   Biso      1.000     Mo          0.47894200000000003           
         N1        1.0000    0.29974   0.96681   0.10627   Biso      1.000     N          -0.395593           
         N2        1.0000    0.67718   0.42007   0.49383   Biso      1.000     N          -0.39063600000000004          
         N3        1.0000    0.13946   0.10627   0.80653   Biso      1.000     N          -0.395582           
         N4        1.0000    0.07376   0.49383   0.81665   Biso      1.000     N          -0.390638           
         N5        1.0000    0.86054   0.66707   0.96681   Biso      1.000     N          -0.395565           
         N6        1.0000    0.92624   0.74289   0.42007   Biso      1.000     N          -0.39060100000000003          
         N7        1.0000    0.29974   0.19347   0.33293   Biso      1.000     N          -0.395577           
         N8        1.0000    0.70026   0.03319   0.89373   Biso      1.000     N          -0.395595           
         N9        1.0000    0.32282   0.57993   0.50617   Biso      1.000     N          -0.39062800000000003          
         N10       1.0000    0.86054   0.89373   0.19347   Biso      1.000     N          -0.39555300000000004          
         N11       1.0000    0.92624   0.50617   0.18335   Biso      1.000     N          -0.390604           
         N12       1.0000    0.13946   0.33293   0.03319   Biso      1.000     N          -0.395594           
         N13       1.0000    0.07376   0.25711   0.57993   Biso      1.000     N          -0.39063600000000004          
         N14       1.0000    0.32282   0.81665   0.74289   Biso      1.000     N          -0.390621           
         N15       1.0000    0.67718   0.18335   0.25711   Biso      1.000     N          -0.39063000000000003          
         N16       1.0000    0.70026   0.80653   0.66707   Biso      1.000     N          -0.395579 