
##########################################################################
#               Crystallographic Information Format file
#               Produced by PyCifRW module
#
#  This is a CIF file.  CIF has been adopted by the International
#  Union of Crystallography as the standard for data archiving and
#  transmission.
#
#  For information on this file format, follow the CIF links at
#  http://www.iucr.org
##########################################################################

data_image0

_cell_length_a                          11.328
_cell_length_b                          13.624
_cell_length_c                          24.951
_cell_angle_alpha                       90
_cell_angle_beta                        90
_cell_angle_gamma                       114.073
_symmetry_space_group_name_H-M          'P 1'
_symmetry_int_tables_number             1
loop_
  _symmetry_equiv_pos_as_xyz
         'x, y, z' 
loop_
  _atom_site_label
  _atom_site_occupancy
  _atom_site_fract_x
  _atom_site_fract_y
  _atom_site_fract_z
  _atom_site_thermal_displace_type
  _atom_site_B_iso_or_equiv
  _atom_site_type_symbol
  _atom_site_charge
         C1        1.0000    0.70880   0.79310   0.69280   Biso      1.000     C          0.580454  
         C2        1.0000    0.96830   0.77630   0.49360   Biso      1.000     C          -0.120895           
         C3        1.0000    0.61110   0.47730   0.70920   Biso      1.000     C          -0.034631           
         C4        1.0000    0.82540   0.87830   0.42387   Biso      1.000     C          -0.300548           
         C5        1.0000    0.52040   0.98210   0.76415   Biso      1.000     C          -0.065309           
         C6        1.0000    0.17460   0.12170   0.57613   Biso      1.000     C          -0.300548           
         C7        1.0000    0.71770   0.80100   0.03404   Biso      1.000     C          0.1008    
         C8        1.0000    0.11110   0.97730   0.79080   Biso      1.000     C          -0.034631           
         C9        1.0000    0.66810   0.69350   0.42238   Biso      1.000     C          -0.292175           
         C10       1.0000    0.47020   0.05940   0.78884   Biso      1.000     C          0.580711  
         C11       1.0000    0.88840   0.23960   0.64800   Biso      1.000     C          -0.110133           
         C12       1.0000    0.02980   0.44060   0.28884   Biso      1.000     C          0.580711  
         C13       1.0000    0.75030   0.44510   0.83170   Biso      1.000     C          -0.098878           
         C14       1.0000    0.54790   0.31980   0.16760   Biso      1.000     C          -0.10603  
         C15       1.0000    0.09090   0.66280   0.33090   Biso      1.000     C          -0.138815           
         C16       1.0000    0.50500   0.38460   0.70280   Biso      1.000     C          -0.085937           
         C17       1.0000    0.88890   0.02270   0.20920   Biso      1.000     C          -0.034631           
         C18       1.0000    0.36270   0.14630   0.28130   Biso      1.000     C          -0.064865           
         C19       1.0000    0.15200   0.44980   0.80400   Biso      1.000     C          -0.122084           
         C20       1.0000    0.55750   0.42240   0.85920   Biso      1.000     C          0.078861  
         C21       1.0000    0.61160   0.26040   0.14800   Biso      1.000     C          -0.110127           
         C22       1.0000    0.32540   0.37830   0.07613   Biso      1.000     C          -0.300548           
         C23       1.0000    0.96560   0.78360   0.29010   Biso      1.000     C          -0.143613           
         C24       1.0000    0.52980   0.94060   0.21116   Biso      1.000     C          0.580711  
         C25       1.0000    0.77510   0.77470   0.44461   Biso      1.000     C          0.22533   
         C26       1.0000    0.28230   0.19900   0.96596   Biso      1.000     C          0.1008    
         C27       1.0000    0.22490   0.22530   0.55539   Biso      1.000     C          0.225329  
         C28       1.0000    0.90910   0.33720   0.66910   Biso      1.000     C          -0.138804           
         C29       1.0000    0.03440   0.21640   0.70990   Biso      1.000     C          -0.143613           
         C30       1.0000    0.23160   0.10080   0.62108   Biso      1.000     C          0.230889  
         C31       1.0000    0.48380   0.23830   0.95860   Biso      1.000     C          -0.040133           
         C32       1.0000    0.27510   0.27470   0.05539   Biso      1.000     C          0.225329  
         C33       1.0000    0.94280   0.68470   0.26520   Biso      1.000     C          0.058561  
         C34       1.0000    0.51620   0.76170   0.04140   Biso      1.000     C          -0.040133           
         C35       1.0000    0.46830   0.27630   0.00640   Biso      1.000     C          -0.120867           
         C36       1.0000    0.49500   0.61540   0.29720   Biso      1.000     C          -0.085951           
         C37       1.0000    0.86270   0.64630   0.21870   Biso      1.000     C          -0.064865           
         C38       1.0000    0.79120   0.70690   0.19280   Biso      1.000     C          0.580454  
         C39       1.0000    0.38840   0.73960   0.85200   Biso      1.000     C          -0.110132           
         C40       1.0000    0.66180   0.81870   0.35501   Biso      1.000     C          -0.249912           
         C41       1.0000    0.02040   0.48210   0.73585   Biso      1.000     C          -0.065309           
         C42       1.0000    0.34800   0.05020   0.30400   Biso      1.000     C          -0.122076           
         C43       1.0000    0.24970   0.55490   0.16830   Biso      1.000     C          -0.098878           
         C44       1.0000    0.00500   0.88460   0.79720   Biso      1.000     C          -0.085937           
         C45       1.0000    0.11160   0.76040   0.35200   Biso      1.000     C          -0.110122           
         C46       1.0000    0.90860   0.05000   0.12489   Biso      1.000     C          0.067754  
         C47       1.0000    0.13730   0.35370   0.78130   Biso      1.000     C          -0.064858           
         C48       1.0000    0.83670   0.15610   0.31980   Biso      1.000     C          -0.036091           
         C49       1.0000    0.16810   0.19350   0.07762   Biso      1.000     C          -0.292173           
         C50       1.0000    0.97960   0.51790   0.26415   Biso      1.000     C          -0.065309           
         C51       1.0000    0.11190   0.21770   0.12253   Biso      1.000     C          0.232166  
         C52       1.0000    0.29120   0.20690   0.30720   Biso      1.000     C          0.580454  
         C53       1.0000    0.45210   0.68020   0.83240   Biso      1.000     C          -0.106025           
         C54       1.0000    0.50400   0.12020   0.21305   Biso      1.000     C          0.054058  
         C55       1.0000    0.46560   0.28360   0.20990   Biso      1.000     C          -0.143604           
         C56       1.0000    0.49600   0.87980   0.78695   Biso      1.000     C          0.054058  
         C57       1.0000    0.40400   0.98530   0.28110   Biso      1.000     C          -0.129707           
         C58       1.0000    0.99600   0.37980   0.71305   Biso      1.000     C          0.054058  
         C59       1.0000    0.16330   0.84390   0.68020   Biso      1.000     C          -0.036091           
         C60       1.0000    0.63730   0.85370   0.71870   Biso      1.000     C          -0.064865           
         C61       1.0000    0.73160   0.60080   0.87892   Biso      1.000     C          0.230889  
         C62       1.0000    0.83820   0.68130   0.85501   Biso      1.000     C          -0.249912           
         C63       1.0000    0.01620   0.26170   0.45860   Biso      1.000     C          -0.040133           
         C64       1.0000    0.78230   0.69900   0.53404   Biso      1.000     C          0.1008    
         C65       1.0000    0.76840   0.89920   0.37892   Biso      1.000     C          0.230889  
         C66       1.0000    0.20880   0.29310   0.80720   Biso      1.000     C          0.580453  
         C67       1.0000    0.61190   0.71770   0.37747   Biso      1.000     C          0.23217   
         C68       1.0000    0.05720   0.31530   0.73480   Biso      1.000     C          0.05856   
         C69       1.0000    0.53170   0.72370   0.99360   Biso      1.000     C          -0.120867           
         C70       1.0000    0.88810   0.78230   0.87747   Biso      1.000     C          0.23217   
         C71       1.0000    0.65200   0.94980   0.69600   Biso      1.000     C          -0.122077           
         C72       1.0000    0.98380   0.73830   0.54140   Biso      1.000     C          -0.040104           
         C73       1.0000    0.84800   0.55020   0.19600   Biso      1.000     C          -0.122077           
         C74       1.0000    0.59140   0.45000   0.62489   Biso      1.000     C          0.067754  
         C75       1.0000    0.26840   0.39920   0.12108   Biso      1.000     C          0.230889  
         C76       1.0000    0.94250   0.07760   0.35920   Biso      1.000     C          0.078861  
         C77       1.0000    0.90400   0.48530   0.21890   Biso      1.000     C          -0.129703           
         C78       1.0000    0.09600   0.51470   0.78110   Biso      1.000     C          -0.129703           
         C79       1.0000    0.40860   0.55000   0.37511   Biso      1.000     C          0.067754  
         C80       1.0000    0.83190   0.80650   0.92238   Biso      1.000     C          -0.292175           
         C81       1.0000    0.38810   0.28230   0.62253   Biso      1.000     C          0.232166  
         C82       1.0000    0.72490   0.72530   0.94461   Biso      1.000     C          0.22533   
         C83       1.0000    0.25030   0.94510   0.66830   Biso      1.000     C          -0.098867           
         C84       1.0000    0.66330   0.34390   0.81980   Biso      1.000     C          -0.03608  
         C85       1.0000    0.33670   0.65610   0.18020   Biso      1.000     C          -0.03608  
         C86       1.0000    0.21770   0.30100   0.46596   Biso      1.000     C          0.1008    
         C87       1.0000    0.59600   0.01470   0.71890   Biso      1.000     C          -0.129703           
         C88       1.0000    0.44250   0.57760   0.14080   Biso      1.000     C          0.078861  
         C89       1.0000    0.05750   0.92240   0.64080   Biso      1.000     C          0.078861  
         C90       1.0000    0.47960   0.01790   0.23585   Biso      1.000     C          -0.065306           
         C91       1.0000    0.74970   0.05490   0.33170   Biso      1.000     C          -0.098867           
         C92       1.0000    0.33820   0.18130   0.64499   Biso      1.000     C          -0.249908           
         C93       1.0000    0.59090   0.16280   0.16910   Biso      1.000     C          -0.138805           
         C94       1.0000    0.95210   0.18020   0.66760   Biso      1.000     C          -0.106017           
         C95       1.0000    0.67460   0.62170   0.92387   Biso      1.000     C          -0.300547           
         C96       1.0000    0.53440   0.71640   0.79010   Biso      1.000     C          -0.143605           
         C97       1.0000    0.55720   0.81530   0.76520   Biso      1.000     C          0.05856   
         C98       1.0000    0.00400   0.62020   0.28695   Biso      1.000     C          0.054059  
         C99       1.0000    0.99500   0.11540   0.20280   Biso      1.000     C          -0.085937           
         C100      1.0000    0.38890   0.52270   0.29080   Biso      1.000     C          -0.034616           
         C101      1.0000    0.44280   0.18470   0.23480   Biso      1.000     C          0.05856   
         C102      1.0000    0.09140   0.95000   0.87511   Biso      1.000     C          0.067754  
         C103      1.0000    0.40910   0.83720   0.83090   Biso      1.000     C          -0.138805           
         C104      1.0000    0.33190   0.30650   0.57762   Biso      1.000     C          -0.292173           
         C105      1.0000    0.16180   0.31870   0.14499   Biso      1.000     C          -0.249908           
         C106      1.0000    0.03170   0.22370   0.50640   Biso      1.000     C          -0.120867           
         C107      1.0000    0.04790   0.81980   0.33240   Biso      1.000     C          -0.106018           
         C108      1.0000    0.97020   0.55940   0.71116   Biso      1.000     C          0.580711  
         Cd1       1.0000    0.35246   0.17473   0.84023   Biso      1.000     Cd          0.806996  
         Cd2       1.0000    0.85246   0.67473   0.65977   Biso      1.000     Cd          0.806996  
         Cd3       1.0000    0.64754   0.82527   0.15977   Biso      1.000     Cd          0.806996  
         Cd4       1.0000    0.14754   0.32527   0.34023   Biso      1.000     Cd          0.806996  
         H1        1.0000    0.61000   0.08060   0.70330   Biso      1.000     H          0.111599  
         H2        1.0000    0.70010   0.97240   0.66470   Biso      1.000     H          0.110361  
         H3        1.0000    0.56250   0.24360   0.94480   Biso      1.000     H          0.127242  
         H4        1.0000    0.43750   0.75640   0.05520   Biso      1.000     H          0.127242  
         H5        1.0000    0.49080   0.43600   0.87440   Biso      1.000     H          0.104784  
         H6        1.0000    0.62480   0.83300   0.32430   Biso      1.000     H          0.165844  
         H7        1.0000    0.54820   0.65840   0.27040   Biso      1.000     H          0.13866   
         H8        1.0000    0.13450   0.12470   0.06300   Biso      1.000     H          0.147328  
         H9        1.0000    0.06250   0.74360   0.55520   Biso      1.000     H          0.12724   
         H10       1.0000    0.53250   0.31290   0.03130   Biso      1.000     H          0.133319  
         H11       1.0000    0.20010   0.47240   0.83530   Biso      1.000     H          0.110361  
         H12       1.0000    0.79990   0.52760   0.16470   Biso      1.000     H          0.110361  
         H13       1.0000    0.64290   0.50940   0.74210   Biso      1.000     H          0.115696  
         H14       1.0000    0.92340   0.82500   0.27750   Biso      1.000     H          0.111244  
         H15       1.0000    0.11000   0.58060   0.79670   Biso      1.000     H          0.111599  
         H16       1.0000    0.39490   0.54210   0.41190   Biso      1.000     H          0.097908  
         H17       1.0000    0.07660   0.17500   0.72250   Biso      1.000     H          0.111243  
         H18       1.0000    0.29990   0.02760   0.33530   Biso      1.000     H          0.110361  
         H19       1.0000    0.19400   0.17280   0.95910   Biso      1.000     H          0.105781  
         H20       1.0000    0.18250   0.79150   0.69730   Biso      1.000     H          0.131748  
         H21       1.0000    0.43870   0.61470   0.84820   Biso      1.000     H          0.09255   
         H22       1.0000    0.36630   0.87670   0.84520   Biso      1.000     H          0.11504   
         H23       1.0000    0.39600   0.43250   0.06010   Biso      1.000     H          0.143891  
         H24       1.0000    0.04820   0.15840   0.22960   Biso      1.000     H          0.138659  
         H25       1.0000    0.13370   0.62330   0.34520   Biso      1.000     H          0.11504   
         H26       1.0000    0.60510   0.45790   0.58810   Biso      1.000     H          0.097908  
         H27       1.0000    0.99080   0.93600   0.62560   Biso      1.000     H          0.104784  
         H28       1.0000    0.66170   0.02530   0.32400   Biso      1.000     H          0.131916  
         H29       1.0000    0.89490   0.04210   0.08810   Biso      1.000     H          0.097908  
         H30       1.0000    0.37520   0.16700   0.67570   Biso      1.000     H          0.165844  
         H31       1.0000    0.83030   0.21250   0.61980   Biso      1.000     H          0.098811  
         H32       1.0000    0.16970   0.78750   0.38020   Biso      1.000     H          0.098811  
         H33       1.0000    0.86630   0.37670   0.65480   Biso      1.000     H          0.11504   
         H34       1.0000    0.89000   0.41940   0.20330   Biso      1.000     H          0.111599  
         H35       1.0000    0.10400   0.06750   0.56010   Biso      1.000     H          0.143892  
         H36       1.0000    0.80600   0.82720   0.04090   Biso      1.000     H          0.105781  
         H37       1.0000    0.63450   0.62470   0.43700   Biso      1.000     H          0.147328  
         H38       1.0000    0.81750   0.20850   0.30270   Biso      1.000     H          0.131748  
         H39       1.0000    0.96750   0.18710   0.53130   Biso      1.000     H          0.133318  
         H40       1.0000    0.31750   0.70850   0.19730   Biso      1.000     H          0.131748  
         H41       1.0000    0.87520   0.66700   0.82430   Biso      1.000     H          0.165844  
         H42       1.0000    0.06130   0.88530   0.34820   Biso      1.000     H          0.092549  
         H43       1.0000    0.69400   0.67280   0.54090   Biso      1.000     H          0.105781  
         H44       1.0000    0.85710   0.99060   0.24210   Biso      1.000     H          0.115696  
         H45       1.0000    0.50920   0.56400   0.12560   Biso      1.000     H          0.104784  
         H46       1.0000    0.95180   0.84160   0.77040   Biso      1.000     H          0.138659  
         H47       1.0000    0.63370   0.12330   0.15480   Biso      1.000     H          0.11504   
         H48       1.0000    0.93870   0.11470   0.65180   Biso      1.000     H          0.092549  
         H49       1.0000    0.68250   0.29150   0.80270   Biso      1.000     H          0.131748  
         H50       1.0000    0.83830   0.47470   0.82400   Biso      1.000     H          0.131917  
         H51       1.0000    0.86550   0.87530   0.93700   Biso      1.000     H          0.147328  
         H52       1.0000    0.30600   0.32720   0.45910   Biso      1.000     H          0.105781  
         H53       1.0000    0.36550   0.37530   0.56300   Biso      1.000     H          0.147328  
         H54       1.0000    0.45180   0.34160   0.72960   Biso      1.000     H          0.138659  
         H55       1.0000    0.66970   0.28750   0.11980   Biso      1.000     H          0.098811  
         H56       1.0000    0.12480   0.33300   0.17570   Biso      1.000     H          0.165844  
         H57       1.0000    0.60400   0.56750   0.93990   Biso      1.000     H          0.143891  
         H58       1.0000    0.39000   0.91940   0.29670   Biso      1.000     H          0.111599  
         H59       1.0000    0.33830   0.97470   0.67600   Biso      1.000     H          0.131916  
         H60       1.0000    0.00920   0.06400   0.37440   Biso      1.000     H          0.104784  
         H61       1.0000    0.93750   0.25640   0.44480   Biso      1.000     H          0.127242  
         H62       1.0000    0.33030   0.71250   0.88020   Biso      1.000     H          0.098811  
         H63       1.0000    0.46750   0.68710   0.96870   Biso      1.000     H          0.133318  
         H64       1.0000    0.10510   0.95790   0.91190   Biso      1.000     H          0.097909  
         H65       1.0000    0.89600   0.93250   0.43990   Biso      1.000     H          0.143892  
         H66       1.0000    0.14290   0.00940   0.75790   Biso      1.000     H          0.115696  
         H67       1.0000    0.42340   0.32500   0.22250   Biso      1.000     H          0.111243  
         H68       1.0000    0.16170   0.52530   0.17600   Biso      1.000     H          0.131917  
         H69       1.0000    0.35710   0.49060   0.25790   Biso      1.000     H          0.115695  
         H70       1.0000    0.57660   0.67500   0.77750   Biso      1.000     H          0.111243  
         H71       1.0000    0.03250   0.81290   0.46870   Biso      1.000     H          0.13332   
         H72       1.0000    0.56130   0.38530   0.15180   Biso      1.000     H          0.09255   
         N1        1.0000    0.31770   0.50530   0.14270   Biso      1.000     N          0.010219  
         N2        1.0000    0.54240   0.33110   0.83702   Biso      1.000     N          -0.250843           
         N3        1.0000    0.95760   0.16890   0.33702   Biso      1.000     N          -0.250842           
         N4        1.0000    0.49220   0.36710   0.64856   Biso      1.000     N          0.0138    
         N5        1.0000    0.00780   0.13290   0.14856   Biso      1.000     N          0.0138    
         N6        1.0000    0.50780   0.63290   0.35144   Biso      1.000     N          0.013801  
         N7        1.0000    0.99220   0.86710   0.85144   Biso      1.000     N          0.013799  
         N8        1.0000    0.63270   0.80950   0.06724   Biso      1.000     N          -0.261195           
         N9        1.0000    0.36730   0.19050   0.93276   Biso      1.000     N          -0.261195           
         N10       1.0000    0.16090   0.24960   0.51123   Biso      1.000     N          0.016731  
         N11       1.0000    0.66490   0.51720   0.66080   Biso      1.000     N          -0.249208           
         N12       1.0000    0.66090   0.74960   0.98877   Biso      1.000     N          0.016731  
         N13       1.0000    0.18230   0.99470   0.64270   Biso      1.000     N          0.010218  
         N14       1.0000    0.33910   0.25040   0.01123   Biso      1.000     N          0.016731  
         N15       1.0000    0.33510   0.48280   0.33920   Biso      1.000     N          -0.24921  
         N16       1.0000    0.13270   0.30950   0.43276   Biso      1.000     N          -0.261195           
         N17       1.0000    0.83510   0.98280   0.16080   Biso      1.000     N          -0.249209           
         N18       1.0000    0.81770   0.00530   0.35730   Biso      1.000     N          0.010218  
         N19       1.0000    0.68230   0.49470   0.85730   Biso      1.000     N          0.010219  
         N20       1.0000    0.83910   0.75040   0.48877   Biso      1.000     N          0.016733  
         N21       1.0000    0.04240   0.83110   0.66298   Biso      1.000     N          -0.250842           
         N22       1.0000    0.45760   0.66890   0.16298   Biso      1.000     N          -0.250843           
         N23       1.0000    0.16490   0.01720   0.83920   Biso      1.000     N          -0.249209           
         N24       1.0000    0.86730   0.69050   0.56724   Biso      1.000     N          -0.261199           
         O1        1.0000    0.92750   0.61020   0.74045   Biso      1.000     O          -0.57452  
         O2        1.0000    0.07250   0.38980   0.25955   Biso      1.000     O          -0.57452  
         O3        1.0000    0.27940   0.20350   0.35687   Biso      1.000     O          -0.618167           
         O4        1.0000    0.42750   0.11020   0.75955   Biso      1.000     O          -0.574521           
         O5        1.0000    0.72060   0.79650   0.64313   Biso      1.000     O          -0.618167           
         O6        1.0000    0.02490   0.43020   0.33904   Biso      1.000     O          -0.58336  
         O7        1.0000    0.52490   0.93020   0.16096   Biso      1.000     O          -0.58336  
         O8        1.0000    0.74590   0.75770   0.22241   Biso      1.000     O          -0.564077           
         O9        1.0000    0.77940   0.70350   0.14313   Biso      1.000     O          -0.618167           
         O10       1.0000    0.97510   0.56980   0.66096   Biso      1.000     O          -0.58336  
         O11       1.0000    0.25410   0.24230   0.77759   Biso      1.000     O          -0.564078           
         O12       1.0000    0.24590   0.25770   0.27759   Biso      1.000     O          -0.564078           
         O13       1.0000    0.75410   0.74230   0.72241   Biso      1.000     O          -0.564078           
         O14       1.0000    0.57250   0.88980   0.24045   Biso      1.000     O          -0.57452  
         O15       1.0000    0.47510   0.06980   0.83904   Biso      1.000     O          -0.58336  
         O16       1.0000    0.22060   0.29650   0.85687   Biso      1.000     O          -0.618167 