
##########################################################################
#               Crystallographic Information Format file
#               Produced by PyCifRW module
#
#  This is a CIF file.  CIF has been adopted by the International
#  Union of Crystallography as the standard for data archiving and
#  transmission.
#
#  For information on this file format, follow the CIF links at
#  http://www.iucr.org
##########################################################################

data_image0

_cell_length_a                          11.1414
_cell_length_b                          11.1414
_cell_length_c                          18.662
_cell_angle_alpha                       93.4858
_cell_angle_beta                        93.4858
_cell_angle_gamma                       114.961
_symmetry_space_group_name_H-M          'P 1'
_symmetry_int_tables_number             1
loop_
  _symmetry_equiv_pos_as_xyz
         'x, y, z' 
loop_
  _atom_site_label
  _atom_site_occupancy
  _atom_site_fract_x
  _atom_site_fract_y
  _atom_site_fract_z
  _atom_site_thermal_displace_type
  _atom_site_B_iso_or_equiv
  _atom_site_type_symbol
  _atom_site_charge
         C1        1.0000    0.94500   0.53540   0.77376   Biso      1.000     C          -0.011065           
         C2        1.0000    0.69190   0.48990   0.54530   Biso      1.000     C          -0.19326  
         C3        1.0000    0.15600   0.98520   0.52350   Biso      1.000     C          -0.041766           
         C4        1.0000    0.07910   0.57470   0.56440   Biso      1.000     C          0.136884  
         C5        1.0000    0.46660   0.00680   0.31920   Biso      1.000     C          0.556178  
         C6        1.0000    0.05840   0.63480   0.50460   Biso      1.000     C          0.092859  
         C7        1.0000    0.59900   0.40620   0.49160   Biso      1.000     C          0.088375  
         C8        1.0000    0.05500   0.46460   0.22624   Biso      1.000     C          -0.011065           
         C9        1.0000    0.97560   0.66840   0.79230   Biso      1.000     C          -0.113302           
         C10       1.0000    0.73100   0.91500   0.25210   Biso      1.000     C          -0.121792           
         C11       1.0000    0.17888   0.33772   0.30532   Biso      1.000     C          -0.039096           
         C12       1.0000    0.48990   0.69190   0.04530   Biso      1.000     C          -0.19326  
         C13       1.0000    0.42530   0.92090   0.93560   Biso      1.000     C          0.136881  
         C14       1.0000    0.44908   0.68972   0.11480   Biso      1.000     C          0.137954  
         C15       1.0000    0.13670   0.92170   0.95780   Biso      1.000     C          -0.103724           
         C16       1.0000    0.75033   0.73367   0.65749   Biso      1.000     C          0.579398  
         C17       1.0000    0.40850   0.67450   0.37480   Biso      1.000     C          -0.181012           
         C18       1.0000    0.63480   0.05840   0.00460   Biso      1.000     C          0.092859  
         C19       1.0000    0.14940   0.78320   0.03180   Biso      1.000     C          0.114689  
         C20       1.0000    0.98320   0.56400   0.44220   Biso      1.000     C          -0.245597           
         C21       1.0000    0.21080   0.47160   0.32466   Biso      1.000     C          0.028047  
         C22       1.0000    0.67450   0.40850   0.87480   Biso      1.000     C          -0.181012           
         C23       1.0000    0.30810   0.51010   0.45470   Biso      1.000     C          -0.19326  
         C24       1.0000    0.46460   0.05500   0.72624   Biso      1.000     C          -0.011065           
         C25       1.0000    0.34830   0.83630   0.86850   Biso      1.000     C          -0.521271           
         C26       1.0000    0.33160   0.02440   0.70770   Biso      1.000     C          -0.113302           
         C27       1.0000    0.73367   0.75033   0.15749   Biso      1.000     C          0.579398  
         C28       1.0000    0.65170   0.16370   0.13150   Biso      1.000     C          -0.521271           
         C29       1.0000    0.50280   0.24880   0.56830   Biso      1.000     C          0.08235   
         C30       1.0000    0.83630   0.34830   0.36850   Biso      1.000     C          -0.521273           
         C31       1.0000    0.86330   0.07830   0.04220   Biso      1.000     C          -0.103724           
         C32       1.0000    0.46698   0.85342   0.21546   Biso      1.000     C          -0.168844           
         C33       1.0000    0.16370   0.65170   0.63150   Biso      1.000     C          -0.521273           
         C34       1.0000    0.91500   0.73100   0.75210   Biso      1.000     C          -0.121792           
         C35       1.0000    0.53302   0.14658   0.78454   Biso      1.000     C          -0.168843           
         C36       1.0000    0.02440   0.33160   0.20770   Biso      1.000     C          -0.113302           
         C37       1.0000    0.59380   0.40100   0.00840   Biso      1.000     C          0.08837   
         C38       1.0000    0.51010   0.30810   0.95470   Biso      1.000     C          -0.193255           
         C39       1.0000    0.01680   0.43600   0.55780   Biso      1.000     C          -0.2456   
         C40       1.0000    0.52840   0.78920   0.17534   Biso      1.000     C          0.028047  
         C41       1.0000    0.53340   0.99320   0.68080   Biso      1.000     C          0.556178  
         C42       1.0000    0.26900   0.08500   0.74790   Biso      1.000     C          -0.121792           
         C43       1.0000    0.00680   0.46660   0.81920   Biso      1.000     C          0.556178  
         C44       1.0000    0.33772   0.17888   0.80532   Biso      1.000     C          -0.039096           
         C45       1.0000    0.82112   0.66228   0.69468   Biso      1.000     C          -0.039097           
         C46       1.0000    0.59150   0.32550   0.62520   Biso      1.000     C          -0.181008           
         C47       1.0000    0.08500   0.26900   0.24790   Biso      1.000     C          -0.121793           
         C48       1.0000    0.43600   0.01680   0.05780   Biso      1.000     C          -0.245602           
         C49       1.0000    0.66228   0.82112   0.19468   Biso      1.000     C          -0.039097           
         C50       1.0000    0.32550   0.59150   0.12520   Biso      1.000     C          -0.181011           
         C51       1.0000    0.14658   0.53302   0.28454   Biso      1.000     C          -0.168843           
         C52       1.0000    0.92170   0.13670   0.45780   Biso      1.000     C          -0.103724           
         C53       1.0000    0.84400   0.01480   0.47650   Biso      1.000     C          -0.041744           
         C54       1.0000    0.24967   0.26633   0.34251   Biso      1.000     C          0.579397  
         C55       1.0000    0.94160   0.36520   0.49540   Biso      1.000     C          0.092862  
         C56       1.0000    0.31028   0.55092   0.38520   Biso      1.000     C          0.137956  
         C57       1.0000    0.40100   0.59380   0.50840   Biso      1.000     C          0.088375  
         C58       1.0000    0.49720   0.75120   0.43170   Biso      1.000     C          0.082354  
         C59       1.0000    0.98520   0.15600   0.02350   Biso      1.000     C          -0.041744           
         C60       1.0000    0.01480   0.84400   0.97650   Biso      1.000     C          -0.041744           
         C61       1.0000    0.47160   0.21080   0.82466   Biso      1.000     C          0.028047  
         C62       1.0000    0.55092   0.31028   0.88520   Biso      1.000     C          0.137956  
         C63       1.0000    0.07830   0.86330   0.54220   Biso      1.000     C          -0.103702           
         C64       1.0000    0.68972   0.44908   0.61480   Biso      1.000     C          0.137956  
         C65       1.0000    0.85342   0.46698   0.71546   Biso      1.000     C          -0.168843           
         C66       1.0000    0.78320   0.14940   0.53180   Biso      1.000     C          0.11469   
         C67       1.0000    0.92090   0.42530   0.43560   Biso      1.000     C          0.136883  
         C68       1.0000    0.36520   0.94160   0.99540   Biso      1.000     C          0.092862  
         C69       1.0000    0.26633   0.24967   0.84251   Biso      1.000     C          0.579397  
         C70       1.0000    0.40620   0.59900   0.99160   Biso      1.000     C          0.088375  
         C71       1.0000    0.24880   0.50280   0.06830   Biso      1.000     C          0.082354  
         C72       1.0000    0.85060   0.21680   0.96820   Biso      1.000     C          0.114689  
         C73       1.0000    0.66840   0.97560   0.29230   Biso      1.000     C          -0.113302           
         C74       1.0000    0.53540   0.94500   0.27376   Biso      1.000     C          -0.011063           
         C75       1.0000    0.21680   0.85060   0.46820   Biso      1.000     C          0.11469   
         C76       1.0000    0.75120   0.49720   0.93170   Biso      1.000     C          0.082354  
         C77       1.0000    0.57470   0.07910   0.06440   Biso      1.000     C          0.136882  
         C78       1.0000    0.99320   0.53340   0.18080   Biso      1.000     C          0.556178  
         C79       1.0000    0.56400   0.98320   0.94220   Biso      1.000     C          -0.245599           
         C80       1.0000    0.78920   0.52840   0.67534   Biso      1.000     C          0.028047  
         Cd1       1.0000    0.36918   0.13500   0.41017   Biso      1.000     Cd          0.835996  
         Cd2       1.0000    0.13500   0.36918   0.91017   Biso      1.000     Cd          0.835996  
         Cd3       1.0000    0.86500   0.63082   0.08983   Biso      1.000     Cd          0.835996  
         Cd4       1.0000    0.63082   0.86500   0.58983   Biso      1.000     Cd          0.835996  
         H1        1.0000    0.73860   0.18420   0.56100   Biso      1.000     H          0.097987  
         H2        1.0000    0.82080   0.93740   0.26380   Biso      1.000     H          0.127268  
         H3        1.0000    0.43740   0.16640   0.57670   Biso      1.000     H          0.085233  
         H4        1.0000    0.96330   0.28490   0.16840   Biso      1.000     H          0.109997  
         H5        1.0000    0.26140   0.81580   0.43900   Biso      1.000     H          0.097987  
         H6        1.0000    0.28420   0.75240   0.88110   Biso      1.000     H          0.174891  
         H7        1.0000    0.24470   0.42770   0.46440   Biso      1.000     H          0.127976  
         H8        1.0000    0.81580   0.26140   0.93900   Biso      1.000     H          0.097987  
         H9        1.0000    0.16590   0.62170   0.29730   Biso      1.000     H          0.125022  
         H10       1.0000    0.15110   0.06350   0.53970   Biso      1.000     H          0.117934  
         H11       1.0000    0.24760   0.71580   0.61890   Biso      1.000     H          0.174891  
         H12       1.0000    0.16640   0.43740   0.07670   Biso      1.000     H          0.085233  
         H13       1.0000    0.01150   0.84170   0.57320   Biso      1.000     H          0.134413  
         H14       1.0000    0.15830   0.98850   0.92680   Biso      1.000     H          0.134414  
         H15       1.0000    0.98850   0.15830   0.42680   Biso      1.000     H          0.134414  
         H16       1.0000    0.02630   0.39050   0.59630   Biso      1.000     H          0.147832  
         H17       1.0000    0.93740   0.82080   0.76380   Biso      1.000     H          0.127269  
         H18       1.0000    0.18420   0.73860   0.06100   Biso      1.000     H          0.097987  
         H19       1.0000    0.75530   0.57230   0.53560   Biso      1.000     H          0.127976  
         H20       1.0000    0.29450   0.58550   0.17070   Biso      1.000     H          0.12704   
         H21       1.0000    0.71580   0.24760   0.11890   Biso      1.000     H          0.174891  
         H22       1.0000    0.39860   0.56540   0.55430   Biso      1.000     H          0.105346  
         H23       1.0000    0.93650   0.84890   0.96030   Biso      1.000     H          0.117932  
         H24       1.0000    0.56540   0.39860   0.05430   Biso      1.000     H          0.105347  
         H25       1.0000    0.84170   0.01150   0.07320   Biso      1.000     H          0.134414  
         H26       1.0000    0.39050   0.02630   0.09630   Biso      1.000     H          0.147832  
         H27       1.0000    0.84890   0.93650   0.46030   Biso      1.000     H          0.117932  
         H28       1.0000    0.57230   0.75530   0.03560   Biso      1.000     H          0.127976  
         H29       1.0000    0.83360   0.56260   0.92330   Biso      1.000     H          0.085233  
         H30       1.0000    0.70550   0.41450   0.82930   Biso      1.000     H          0.127041  
         H31       1.0000    0.60140   0.43460   0.44570   Biso      1.000     H          0.105346  
         H32       1.0000    0.88040   0.30320   0.34350   Biso      1.000     H          0.169043  
         H33       1.0000    0.58550   0.29450   0.67070   Biso      1.000     H          0.12704   
         H34       1.0000    0.17830   0.59190   0.66200   Biso      1.000     H          0.180148  
         H35       1.0000    0.40810   0.82170   0.83800   Biso      1.000     H          0.180149  
         H36       1.0000    0.60950   0.97370   0.90370   Biso      1.000     H          0.147832  
         H37       1.0000    0.28490   0.96330   0.66840   Biso      1.000     H          0.109997  
         H38       1.0000    0.83410   0.37830   0.70270   Biso      1.000     H          0.125023  
         H39       1.0000    0.56260   0.83360   0.42330   Biso      1.000     H          0.085233  
         H40       1.0000    0.75240   0.28420   0.38110   Biso      1.000     H          0.174892  
         H41       1.0000    0.17920   0.06260   0.73620   Biso      1.000     H          0.127269  
         H42       1.0000    0.41450   0.70550   0.32930   Biso      1.000     H          0.127041  
         H43       1.0000    0.71510   0.03670   0.33160   Biso      1.000     H          0.109997  
         H44       1.0000    0.03670   0.71510   0.83160   Biso      1.000     H          0.109997  
         H45       1.0000    0.37830   0.83410   0.20270   Biso      1.000     H          0.125023  
         H46       1.0000    0.82170   0.40810   0.33800   Biso      1.000     H          0.180149  
         H47       1.0000    0.43460   0.60140   0.94570   Biso      1.000     H          0.105346  
         H48       1.0000    0.42770   0.24470   0.96440   Biso      1.000     H          0.127976  
         H49       1.0000    0.06350   0.15110   0.03970   Biso      1.000     H          0.117932  
         H50       1.0000    0.69680   0.11960   0.15650   Biso      1.000     H          0.169043  
         H51       1.0000    0.59190   0.17830   0.16200   Biso      1.000     H          0.180148  
         H52       1.0000    0.30320   0.88040   0.84350   Biso      1.000     H          0.169043  
         H53       1.0000    0.11960   0.69680   0.65650   Biso      1.000     H          0.169043  
         H54       1.0000    0.62170   0.16590   0.79730   Biso      1.000     H          0.125023  
         H55       1.0000    0.06260   0.17920   0.23620   Biso      1.000     H          0.127269  
         H56       1.0000    0.97370   0.60950   0.40370   Biso      1.000     H          0.147831  
         N1        1.0000    0.02317   0.75683   0.02291   Biso      1.000     N          -0.275171           
         N2        1.0000    0.50501   0.28579   0.50187   Biso      1.000     N          -0.234084           
         N3        1.0000    0.88158   0.22222   0.49389   Biso      1.000     N          0.028984  
         N4        1.0000    0.24317   0.97683   0.47709   Biso      1.000     N          -0.275169           
         N5        1.0000    0.75683   0.02317   0.52291   Biso      1.000     N          -0.275171           
         N6        1.0000    0.49499   0.71421   0.49813   Biso      1.000     N          -0.234085           
         N7        1.0000    0.22222   0.88158   0.99389   Biso      1.000     N          0.028988  
         N8        1.0000    0.77778   0.11842   0.00611   Biso      1.000     N          0.028988  
         N9        1.0000    0.97683   0.24317   0.97709   Biso      1.000     N          -0.275171           
         N10       1.0000    0.28579   0.50501   0.00187   Biso      1.000     N          -0.234085           
         N11       1.0000    0.11842   0.77778   0.50611   Biso      1.000     N          0.028983  
         N12       1.0000    0.71421   0.49499   0.99813   Biso      1.000     N          -0.234084           
         O1        1.0000    0.30993   0.37247   0.84348   Biso      1.000     O          -0.56574  
         O2        1.0000    0.69007   0.62753   0.15652   Biso      1.000     O          -0.56574  
         O3        1.0000    0.18232   0.16428   0.37063   Biso      1.000     O          -0.561412           
         O4        1.0000    0.08062   0.52998   0.87439   Biso      1.000     O          -0.569975           
         O5        1.0000    0.83572   0.81768   0.12937   Biso      1.000     O          -0.561413           
         O6        1.0000    0.16428   0.18232   0.87063   Biso      1.000     O          -0.561413           
         O7        1.0000    0.62753   0.69007   0.65652   Biso      1.000     O          -0.56574  
         O8        1.0000    0.98054   0.34686   0.80291   Biso      1.000     O          -0.564761           
         O9        1.0000    0.65314   0.01946   0.69709   Biso      1.000     O          -0.564761           
         O10       1.0000    0.52998   0.08062   0.37439   Biso      1.000     O          -0.569975           
         O11       1.0000    0.01946   0.65314   0.19709   Biso      1.000     O          -0.564761           
         O12       1.0000    0.34686   0.98054   0.30291   Biso      1.000     O          -0.564761           
         O13       1.0000    0.81768   0.83572   0.62937   Biso      1.000     O          -0.561413           
         O14       1.0000    0.91938   0.47002   0.12561   Biso      1.000     O          -0.569975           
         O15       1.0000    0.37247   0.30993   0.34348   Biso      1.000     O          -0.56574  
         O16       1.0000    0.47002   0.91938   0.62561   Biso      1.000     O          -0.569975 