
##########################################################################
#               Crystallographic Information Format file
#               Produced by PyCifRW module
#
#  This is a CIF file.  CIF has been adopted by the International
#  Union of Crystallography as the standard for data archiving and
#  transmission.
#
#  For information on this file format, follow the CIF links at
#  http://www.iucr.org
##########################################################################

data_image0

_cell_length_a                          19.6801
_cell_length_b                          15.1165
_cell_length_c                          6.6716
_cell_angle_alpha                       90
_cell_angle_beta                        103.757
_cell_angle_gamma                       90
_symmetry_space_group_name_H-M          'P 1'
_symmetry_int_tables_number             1
loop_
  _symmetry_equiv_pos_as_xyz
         'x, y, z' 
loop_
  _atom_site_label
  _atom_site_occupancy
  _atom_site_fract_x
  _atom_site_fract_y
  _atom_site_fract_z
  _atom_site_thermal_displace_type
  _atom_site_B_iso_or_equiv
  _atom_site_type_symbol
  _atom_site_charge
         C1        1.0000    0.81820   0.39370   0.08750   Biso      1.000     C          -0.027755000000000002         
         C2        1.0000    0.70210   0.88820   0.10070   Biso      1.000     C          -0.091628           
         C3        1.0000    0.77340   0.90490   0.18440   Biso      1.000     C          -0.09858099999999999          
         C4        1.0000    0.89880   0.59150   0.66870   Biso      1.000     C          0.596839  
         C5        1.0000    0.60700   0.66500   0.31070   Biso      1.000     C          0.603753  
         C6        1.0000    0.70210   0.61180   0.60070   Biso      1.000     C          -0.091628           
         C7        1.0000    0.77340   0.59510   0.68440   Biso      1.000     C          -0.09858099999999999          
         C8        1.0000    0.82400   0.61070   0.57490   Biso      1.000     C          -0.026108999999999997         
         C9        1.0000    0.80520   0.64400   0.37630   Biso      1.000     C          -0.09729700000000001          
         C10       1.0000    0.73390   0.66100   0.29100   Biso      1.000     C          -0.10115299999999999          
         C11       1.0000    0.68250   0.64520   0.40110   Biso      1.000     C          -0.026510000000000002         
         C12       1.0000    0.18180   0.60630   0.91250   Biso      1.000     C          -0.027755000000000002         
         C13       1.0000    0.22920   0.60450   0.78860   Biso      1.000     C          -0.10691400000000001          
         C14       1.0000    0.30030   0.62010   0.86630   Biso      1.000     C          -0.094303           
         C15       1.0000    0.77080   0.39550   0.21140   Biso      1.000     C          -0.10691400000000001          
         C16       1.0000    0.32510   0.63820   0.07340   Biso      1.000     C          -0.020803           
         C17       1.0000    0.20750   0.62450   0.11900   Biso      1.000     C          -0.09488200000000001          
         C18       1.0000    0.10610   0.58780   0.82410   Biso      1.000     C          0.6310720000000001  
         C19       1.0000    0.39960   0.65730   0.16650   Biso      1.000     C          0.609841  
         C20       1.0000    0.39960   0.84270   0.66650   Biso      1.000     C          0.609841  
         C21       1.0000    0.10610   0.91220   0.32410   Biso      1.000     C          0.631073  
         C22       1.0000    0.20750   0.87550   0.61900   Biso      1.000     C          -0.09487999999999999          
         C23       1.0000    0.27850   0.86000   0.69620   Biso      1.000     C          -0.10440799999999999          
         C24       1.0000    0.32510   0.86180   0.57340   Biso      1.000     C          -0.020794           
         C25       1.0000    0.30030   0.87990   0.36630   Biso      1.000     C          -0.0943   
         C26       1.0000    0.22920   0.89550   0.28860   Biso      1.000     C          -0.10691400000000001          
         C27       1.0000    0.18180   0.89370   0.41250   Biso      1.000     C          -0.027757           
         C28       1.0000    0.68250   0.85480   0.90110   Biso      1.000     C          -0.026510000000000002         
         C29       1.0000    0.73390   0.83900   0.79100   Biso      1.000     C          -0.10115299999999999          
         C30       1.0000    0.27850   0.64000   0.19620   Biso      1.000     C          -0.104394           
         C31       1.0000    0.69970   0.37990   0.13370   Biso      1.000     C          -0.094304           
         C32       1.0000    0.67490   0.36180   0.92660   Biso      1.000     C          -0.020803           
         C33       1.0000    0.10120   0.40850   0.33130   Biso      1.000     C          0.596839  
         C34       1.0000    0.89880   0.90850   0.16870   Biso      1.000     C          0.596839  
         C35       1.0000    0.60700   0.83500   0.81070   Biso      1.000     C          0.603754  
         C36       1.0000    0.10120   0.09150   0.83130   Biso      1.000     C          0.596839  
         C37       1.0000    0.39300   0.16500   0.18930   Biso      1.000     C          0.603753  
         C38       1.0000    0.29790   0.11180   0.89930   Biso      1.000     C          -0.091628           
         C39       1.0000    0.22660   0.09510   0.81560   Biso      1.000     C          -0.09858099999999999          
         C40       1.0000    0.81820   0.10630   0.58750   Biso      1.000     C          -0.027756           
         C41       1.0000    0.77080   0.10450   0.71140   Biso      1.000     C          -0.10691400000000001          
         C42       1.0000    0.69970   0.12010   0.63370   Biso      1.000     C          -0.094304           
         C43       1.0000    0.67490   0.13820   0.42660   Biso      1.000     C          -0.020803           
         C44       1.0000    0.72150   0.14000   0.30380   Biso      1.000     C          -0.104395           
         C45       1.0000    0.79250   0.12450   0.38100   Biso      1.000     C          -0.094881           
         C46       1.0000    0.89390   0.08780   0.67590   Biso      1.000     C          0.6310720000000001  
         C47       1.0000    0.60040   0.15730   0.33350   Biso      1.000     C          0.609841  
         C48       1.0000    0.17600   0.11070   0.92510   Biso      1.000     C          -0.026108999999999997         
         C49       1.0000    0.19480   0.14400   0.12370   Biso      1.000     C          -0.09729700000000001          
         C50       1.0000    0.26610   0.16100   0.20900   Biso      1.000     C          -0.10115299999999999          
         C51       1.0000    0.31750   0.14520   0.09890   Biso      1.000     C          -0.026510000000000002         
         C52       1.0000    0.60040   0.34270   0.83350   Biso      1.000     C          0.609841  
         C53       1.0000    0.89390   0.41220   0.17590   Biso      1.000     C          0.631073  
         C54       1.0000    0.79250   0.37550   0.88100   Biso      1.000     C          -0.09488200000000001          
         C55       1.0000    0.72150   0.36000   0.80380   Biso      1.000     C          -0.104395           
         C56       1.0000    0.31750   0.35480   0.59890   Biso      1.000     C          -0.026510000000000002         
         C57       1.0000    0.26610   0.33900   0.70900   Biso      1.000     C          -0.10115299999999999          
         C58       1.0000    0.19480   0.35600   0.62370   Biso      1.000     C          -0.09729700000000001          
         C59       1.0000    0.17600   0.38930   0.42510   Biso      1.000     C          -0.026108999999999997         
         C60       1.0000    0.22660   0.40490   0.31560   Biso      1.000     C          -0.09858  
         C61       1.0000    0.29790   0.38820   0.39930   Biso      1.000     C          -0.091629           
         C62       1.0000    0.39300   0.33500   0.68930   Biso      1.000     C          0.603753  
         C63       1.0000    0.80520   0.85600   0.87630   Biso      1.000     C          -0.09729700000000001          
         C64       1.0000    0.82400   0.88930   0.07490   Biso      1.000     C          -0.026108999999999997         
         Ga1       1.0000    0.49630   0.25000   0.51410   Biso      1.000     Ga          1.443116  
         Ga2       1.0000    0.00000   0.50000   0.50000   Biso      1.000     Ga          1.458475  
         Ga3       1.0000    0.00000   0.50000   0.00000   Biso      1.000     Ga          1.48955   
         Ga4       1.0000    0.00000   0.00000   0.50000   Biso      1.000     Ga          1.489551  
         Ga5       1.0000    0.49630   0.25000   0.01410   Biso      1.000     Ga          1.4431200000000002  
         Ga6       1.0000    0.50370   0.75000   0.48590   Biso      1.000     Ga          1.443117  
         Ga7       1.0000    0.00000   0.00000   0.00000   Biso      1.000     Ga          1.458475  
         Ga8       1.0000    0.50370   0.75000   0.98590   Biso      1.000     Ga          1.443119  
         H1        1.0000    0.71970   0.68480   0.15080   Biso      1.000     H          0.11111800000000001           
         H2        1.0000    0.84060   0.65490   0.29720   Biso      1.000     H          0.125993  
         H3        1.0000    0.78800   0.57120   0.82430   Biso      1.000     H          0.11196700000000001           
         H4        1.0000    0.66700   0.60050   0.68090   Biso      1.000     H          0.127945  
         H5        1.0000    0.50500   0.62630   0.72400   Biso      1.000     H          0.45433100000000004           
         H6        1.0000    0.00500   0.38540   0.73700   Biso      1.000     H          0.448482  
         H7        1.0000    0.78800   0.92880   0.32430   Biso      1.000     H          0.11196700000000001           
         H8        1.0000    0.33300   0.39950   0.31910   Biso      1.000     H          0.127945  
         H9        1.0000    0.21200   0.42880   0.17570   Biso      1.000     H          0.11196700000000001           
         H10       1.0000    0.15940   0.34510   0.70280   Biso      1.000     H          0.125993  
         H11       1.0000    0.28030   0.31520   0.84920   Biso      1.000     H          0.11111800000000001           
         H12       1.0000    0.78790   0.40870   0.35840   Biso      1.000     H          0.113257  
         H13       1.0000    0.66700   0.89950   0.18090   Biso      1.000     H          0.127945  
         H14       1.0000    0.70390   0.34660   0.65760   Biso      1.000     H          0.11715899999999999           
         H15       1.0000    0.82410   0.37380   0.78730   Biso      1.000     H          0.12263099999999999           
         H16       1.0000    0.82410   0.12620   0.28730   Biso      1.000     H          0.12263099999999999           
         H17       1.0000    0.70390   0.15340   0.15760   Biso      1.000     H          0.11715899999999999           
         H18       1.0000    0.66790   0.11860   0.72690   Biso      1.000     H          0.123118  
         H19       1.0000    0.78790   0.09130   0.85840   Biso      1.000     H          0.113257  
         H20       1.0000    0.28030   0.18480   0.34920   Biso      1.000     H          0.11111800000000001           
         H21       1.0000    0.15940   0.15490   0.20280   Biso      1.000     H          0.125993  
         H22       1.0000    0.21200   0.07120   0.67570   Biso      1.000     H          0.11196700000000001           
         H23       1.0000    0.33300   0.10050   0.81910   Biso      1.000     H          0.127945  
         H24       1.0000    0.49500   0.12630   0.77600   Biso      1.000     H          0.45433100000000004           
         H25       1.0000    0.99500   0.88540   0.76300   Biso      1.000     H          0.448482  
         H26       1.0000    0.99500   0.61460   0.26300   Biso      1.000     H          0.448482  
         H27       1.0000    0.66790   0.38140   0.22690   Biso      1.000     H          0.123118  
         H28       1.0000    0.49500   0.37370   0.27600   Biso      1.000     H          0.45433100000000004           
         H29       1.0000    0.21210   0.90870   0.14160   Biso      1.000     H          0.113257  
         H30       1.0000    0.17590   0.62620   0.21270   Biso      1.000     H          0.12263099999999999           
         H31       1.0000    0.33210   0.61860   0.77310   Biso      1.000     H          0.123118  
         H32       1.0000    0.50500   0.87370   0.22400   Biso      1.000     H          0.45433100000000004           
         H33       1.0000    0.00500   0.11460   0.23700   Biso      1.000     H          0.448482  
         H34       1.0000    0.84060   0.84510   0.79720   Biso      1.000     H          0.125993  
         H35       1.0000    0.71970   0.81520   0.65080   Biso      1.000     H          0.11111800000000001           
         H36       1.0000    0.29610   0.65340   0.34240   Biso      1.000     H          0.11715899999999999           
         H37       1.0000    0.21210   0.59130   0.64160   Biso      1.000     H          0.113257  
         H38       1.0000    0.17590   0.87380   0.71270   Biso      1.000     H          0.12263099999999999           
         H39       1.0000    0.29610   0.84660   0.84240   Biso      1.000     H          0.11715999999999999           
         H40       1.0000    0.33210   0.88140   0.27310   Biso      1.000     H          0.123118  
         O1        1.0000    0.08430   0.57770   0.63090   Biso      1.000     O          -0.5700390000000001           
         O2        1.0000    0.08850   0.06860   0.64050   Biso      1.000     O          -0.5407390000000001           
         O3        1.0000    0.05680   0.10070   0.94480   Biso      1.000     O          -0.586034           
         O4        1.0000    0.41330   0.81640   0.85300   Biso      1.000     O          -0.549204           
         O5        1.0000    0.91150   0.93140   0.35950   Biso      1.000     O          -0.5407390000000001           
         O6        1.0000    0.55590   0.14850   0.44290   Biso      1.000     O          -0.581713           
         O7        1.0000    0.06820   0.91790   0.45070   Biso      1.000     O          -0.582358           
         O8        1.0000    0.58670   0.18360   0.14700   Biso      1.000     O          -0.549204           
         O9        1.0000    0.43570   0.14820   0.07560   Biso      1.000     O          -0.5666899999999999           
         O10       1.0000    0.93180   0.08210   0.54930   Biso      1.000     O          -0.582358           
         O11       1.0000    0.91570   0.07770   0.86910   Biso      1.000     O          -0.5700390000000001           
         O12       1.0000    0.08430   0.92230   0.13090   Biso      1.000     O          -0.5700390000000001           
         O13       1.0000    0.99910   0.44470   0.74820   Biso      1.000     O          -0.895776           
         O14       1.0000    0.00090   0.55530   0.25180   Biso      1.000     O          -0.895775           
         O15       1.0000    0.49960   0.31470   0.25810   Biso      1.000     O          -0.9018780000000001           
         O16       1.0000    0.44410   0.85150   0.55710   Biso      1.000     O          -0.581713           
         O17       1.0000    0.40800   0.19970   0.37120   Biso      1.000     O          -0.549878           
         O18       1.0000    0.40800   0.30030   0.87120   Biso      1.000     O          -0.549879           
         O19       1.0000    0.56430   0.85180   0.92440   Biso      1.000     O          -0.5666899999999999           
         O20       1.0000    0.99910   0.05530   0.24820   Biso      1.000     O          -0.895776           
         O21       1.0000    0.50040   0.81470   0.24190   Biso      1.000     O          -0.901877           
         O22       1.0000    0.44410   0.64850   0.05710   Biso      1.000     O          -0.581713           
         O23       1.0000    0.41330   0.68360   0.35300   Biso      1.000     O          -0.549204           
         O24       1.0000    0.91150   0.56860   0.85950   Biso      1.000     O          -0.540738           
         O25       1.0000    0.94320   0.60070   0.55520   Biso      1.000     O          -0.586034           
         O26       1.0000    0.56430   0.64820   0.42440   Biso      1.000     O          -0.5666899999999999           
         O27       1.0000    0.59200   0.69970   0.12880   Biso      1.000     O          -0.549879           
         O28       1.0000    0.49960   0.18530   0.75810   Biso      1.000     O          -0.901877           
         O29       1.0000    0.00090   0.94470   0.75180   Biso      1.000     O          -0.895776           
         O30       1.0000    0.91570   0.42230   0.36910   Biso      1.000     O          -0.5700390000000001           
         O31       1.0000    0.93180   0.41790   0.04930   Biso      1.000     O          -0.582357           
         O32       1.0000    0.55590   0.35150   0.94290   Biso      1.000     O          -0.581713           
         O33       1.0000    0.58670   0.31640   0.64700   Biso      1.000     O          -0.549203           
         O34       1.0000    0.08850   0.43140   0.14050   Biso      1.000     O          -0.540738           
         O35       1.0000    0.05680   0.39930   0.44480   Biso      1.000     O          -0.586034           
         O36       1.0000    0.43570   0.35180   0.57560   Biso      1.000     O          -0.566689           
         O37       1.0000    0.06820   0.58210   0.95070   Biso      1.000     O          -0.582357           
         O38       1.0000    0.59200   0.80030   0.62880   Biso      1.000     O          -0.549878           
         O39       1.0000    0.94320   0.89930   0.05520   Biso      1.000     O          -0.586034           
         O40       1.0000    0.50040   0.68530   0.74190   Biso      1.000     O          -0.901877 