
##########################################################################
#               Crystallographic Information Format file
#               Produced by PyCifRW module
#
#  This is a CIF file.  CIF has been adopted by the International
#  Union of Crystallography as the standard for data archiving and
#  transmission.
#
#  For information on this file format, follow the CIF links at
#  http://www.iucr.org
##########################################################################

data_image0

_cell_length_a                          12.016
_cell_length_b                          12.167
_cell_length_c                          13.85
_cell_angle_alpha                       90
_cell_angle_beta                        90
_cell_angle_gamma                       90
_symmetry_space_group_name_H-M          'P 1'
_symmetry_int_tables_number             1
loop_
  _symmetry_equiv_pos_as_xyz
         'x, y, z' 
loop_
  _atom_site_label
  _atom_site_occupancy
  _atom_site_fract_x
  _atom_site_fract_y
  _atom_site_fract_z
  _atom_site_thermal_displace_type
  _atom_site_B_iso_or_equiv
  _atom_site_type_symbol
  _atom_site_charge
         C1        1.0000    0.54750   0.83900   0.63670   Biso      1.000     C          0.08541699999999999           
         C2        1.0000    0.76660   0.50050   0.26920   Biso      1.000     C          0.107465  
         C3        1.0000    0.54750   0.83900   0.36330   Biso      1.000     C          0.08541900000000001           
         C4        1.0000    0.26660   0.99950   0.23080   Biso      1.000     C          0.107472  
         C5        1.0000    0.04750   0.66100   0.13670   Biso      1.000     C          0.085423  
         C6        1.0000    0.73340   0.00050   0.23080   Biso      1.000     C          0.10773699999999999           
         C7        1.0000    0.95250   0.33900   0.13670   Biso      1.000     C          0.084573  
         C8        1.0000    0.76660   0.50050   0.73080   Biso      1.000     C          0.10746199999999999           
         C9        1.0000    0.23340   0.49950   0.73080   Biso      1.000     C          0.107725  
         C10       1.0000    0.45250   0.16100   0.63670   Biso      1.000     C          0.08457100000000001           
         C11       1.0000    0.73340   0.00050   0.76920   Biso      1.000     C          0.10773599999999998           
         C12       1.0000    0.95250   0.33900   0.86330   Biso      1.000     C          0.08457100000000001           
         C13       1.0000    0.26660   0.99950   0.76920   Biso      1.000     C          0.107464  
         C14       1.0000    0.04750   0.66100   0.86330   Biso      1.000     C          0.085418  
         C15       1.0000    0.25530   0.19430   0.00000   Biso      1.000     C          0.10550799999999999           
         C16       1.0000    0.74470   0.80570   0.00000   Biso      1.000     C          0.10647899999999999           
         C17       1.0000    0.24470   0.69430   0.50000   Biso      1.000     C          0.10648900000000001           
         C18       1.0000    0.75530   0.30570   0.50000   Biso      1.000     C          0.105519  
         C19       1.0000    0.45250   0.16100   0.36330   Biso      1.000     C          0.084565  
         C20       1.0000    0.23340   0.49950   0.26920   Biso      1.000     C          0.10772999999999999           
         Cu1       1.0000    0.53088   0.33357   0.11720   Biso      1.000     Cu          0.43604799999999994           
         Cu2       1.0000    0.74059   0.74733   0.75195   Biso      1.000     Cu          0.362026  
         Cu3       1.0000    0.96912   0.83357   0.61720   Biso      1.000     Cu          0.445006  
         Cu4       1.0000    0.25941   0.25267   0.75195   Biso      1.000     Cu          0.359646  
         Cu5       1.0000    0.03088   0.16643   0.61720   Biso      1.000     Cu          0.436079  
         Cu6       1.0000    0.75941   0.24733   0.74805   Biso      1.000     Cu          0.359725  
         Cu7       1.0000    0.53088   0.33357   0.88280   Biso      1.000     Cu          0.436055  
         Cu8       1.0000    0.24059   0.75267   0.74805   Biso      1.000     Cu          0.36201700000000003           
         Cu9       1.0000    0.25941   0.25267   0.24805   Biso      1.000     Cu          0.359709  
         Cu10      1.0000    0.46912   0.66643   0.88280   Biso      1.000     Cu          0.445024  
         Cu11      1.0000    0.74059   0.74733   0.24805   Biso      1.000     Cu          0.36204000000000003           
         Cu12      1.0000    0.96912   0.83357   0.38280   Biso      1.000     Cu          0.445     
         Cu13      1.0000    0.24059   0.75267   0.25195   Biso      1.000     Cu          0.362034  
         Cu14      1.0000    0.46912   0.66643   0.11720   Biso      1.000     Cu          0.445008  
         Cu15      1.0000    0.75941   0.24733   0.25195   Biso      1.000     Cu          0.359658  
         Cu16      1.0000    0.03088   0.16643   0.38280   Biso      1.000     Cu          0.436079  
         H1        1.0000    0.40540   0.12880   0.40840   Biso      1.000     H          0.114264  
         H2        1.0000    0.33050   0.99500   0.19310   Biso      1.000     H          0.11729400000000001           
         H3        1.0000    0.16950   0.49500   0.30690   Biso      1.000     H          0.11745499999999999           
         H4        1.0000    0.83050   0.50500   0.30690   Biso      1.000     H          0.117299  
         H5        1.0000    0.09460   0.62880   0.09160   Biso      1.000     H          0.114576  
         H6        1.0000    0.11080   0.04170   0.50000   Biso      1.000     H          0.408082  
         H7        1.0000    0.66950   0.00500   0.19310   Biso      1.000     H          0.117449  
         H8        1.0000    0.90540   0.37120   0.09160   Biso      1.000     H          0.11426300000000002           
         H9        1.0000    0.83050   0.50500   0.69310   Biso      1.000     H          0.1173    
         H10       1.0000    0.59460   0.87120   0.59160   Biso      1.000     H          0.114578  
         H11       1.0000    0.16950   0.49500   0.69310   Biso      1.000     H          0.11745599999999999           
         H12       1.0000    0.40540   0.12880   0.59160   Biso      1.000     H          0.114266  
         H13       1.0000    0.59460   0.87120   0.40840   Biso      1.000     H          0.114578  
         H14       1.0000    0.90540   0.37120   0.90840   Biso      1.000     H          0.11426199999999999           
         H15       1.0000    0.33050   0.99500   0.80690   Biso      1.000     H          0.11729500000000001           
         H16       1.0000    0.66950   0.00500   0.80690   Biso      1.000     H          0.117448  
         H17       1.0000    0.18440   0.16370   0.00000   Biso      1.000     H          0.105093  
         H18       1.0000    0.61080   0.45830   0.00000   Biso      1.000     H          0.408085  
         H19       1.0000    0.81560   0.83630   0.00000   Biso      1.000     H          0.10550899999999999           
         H20       1.0000    0.38920   0.54170   0.00000   Biso      1.000     H          0.409817  
         H21       1.0000    0.31560   0.66370   0.50000   Biso      1.000     H          0.105495  
         H22       1.0000    0.88920   0.95830   0.50000   Biso      1.000     H          0.409812  
         H23       1.0000    0.68440   0.33630   0.50000   Biso      1.000     H          0.105077  
         H24       1.0000    0.09460   0.62880   0.90840   Biso      1.000     H          0.114577  
         N1        1.0000    0.40690   0.25670   0.95190   Biso      1.000     N          -0.046907           
         N2        1.0000    0.36860   0.56090   0.81270   Biso      1.000     N          -0.027844           
         N3        1.0000    0.56340   0.15730   0.63300   Biso      1.000     N          -0.222856           
         N4        1.0000    0.41840   0.21730   0.71410   Biso      1.000     N          -0.165261           
         N5        1.0000    0.51090   0.24790   0.75950   Biso      1.000     N          -0.056383           
         N6        1.0000    0.59710   0.21320   0.71090   Biso      1.000     N          -0.037073           
         N7        1.0000    0.28010   0.59270   0.76090   Biso      1.000     N          -0.184699           
         N8        1.0000    0.37590   0.45390   0.81380   Biso      1.000     N          -0.026216000000000003         
         N9        1.0000    0.63140   0.43910   0.81270   Biso      1.000     N          -0.025429           
         N10       1.0000    0.68950   0.78190   0.91990   Biso      1.000     N          -0.19196300000000002          
         N11       1.0000    0.59310   0.74330   0.95190   Biso      1.000     N          -0.047274000000000004         
         N12       1.0000    0.43660   0.84270   0.63300   Biso      1.000     N          -0.221453           
         N13       1.0000    0.58160   0.78270   0.71410   Biso      1.000     N          -0.164522           
         N14       1.0000    0.48910   0.75210   0.75950   Biso      1.000     N          -0.057151           
         N15       1.0000    0.40290   0.78680   0.71090   Biso      1.000     N          -0.036385           
         N16       1.0000    0.71990   0.40730   0.76090   Biso      1.000     N          -0.183336           
         N17       1.0000    0.31050   0.21810   0.91990   Biso      1.000     N          -0.192723           
         N18       1.0000    0.29140   0.41420   0.76240   Biso      1.000     N          -0.169373           
         N19       1.0000    0.79140   0.08580   0.73760   Biso      1.000     N          -0.169417           
         N20       1.0000    0.18950   0.71810   0.58010   Biso      1.000     N          -0.191967           
         N21       1.0000    0.86860   0.93910   0.68730   Biso      1.000     N          -0.027839999999999997         
         N22       1.0000    0.62410   0.54610   0.81380   Biso      1.000     N          -0.028855000000000002         
         N23       1.0000    0.09310   0.75670   0.54810   Biso      1.000     N          -0.047277           
         N24       1.0000    0.93660   0.65730   0.86700   Biso      1.000     N          -0.221455           
         N25       1.0000    0.08160   0.71730   0.78590   Biso      1.000     N          -0.164516           
         N26       1.0000    0.98910   0.74790   0.74050   Biso      1.000     N          -0.057146           
         N27       1.0000    0.90290   0.71320   0.78910   Biso      1.000     N          -0.036398           
         N28       1.0000    0.21990   0.09270   0.73910   Biso      1.000     N          -0.183356           
         N29       1.0000    0.13140   0.06090   0.68730   Biso      1.000     N          -0.025408           
         N30       1.0000    0.12410   0.95390   0.68620   Biso      1.000     N          -0.028860000000000004         
         N31       1.0000    0.20860   0.91420   0.73760   Biso      1.000     N          -0.170803           
         N32       1.0000    0.81050   0.28190   0.58010   Biso      1.000     N          -0.192774           
         N33       1.0000    0.90690   0.24330   0.54810   Biso      1.000     N          -0.046870999999999996         
         N34       1.0000    0.06340   0.34270   0.86700   Biso      1.000     N          -0.22285700000000003          
         N35       1.0000    0.91840   0.28270   0.78590   Biso      1.000     N          -0.165273           
         N36       1.0000    0.01090   0.25210   0.74050   Biso      1.000     N          -0.056387           
         N37       1.0000    0.09710   0.28680   0.78910   Biso      1.000     N          -0.037067           
         N38       1.0000    0.78010   0.90730   0.73910   Biso      1.000     N          -0.18470899999999998          
         N39       1.0000    0.87590   0.04610   0.68620   Biso      1.000     N          -0.026192           
         N40       1.0000    0.70860   0.58580   0.76240   Biso      1.000     N          -0.170807           
         N41       1.0000    0.62410   0.54610   0.18620   Biso      1.000     N          -0.028891000000000003         
         N42       1.0000    0.90690   0.24330   0.45190   Biso      1.000     N          -0.046842           
         N43       1.0000    0.58160   0.78270   0.28590   Biso      1.000     N          -0.164521           
         N44       1.0000    0.48910   0.75210   0.24050   Biso      1.000     N          -0.057145           
         N45       1.0000    0.40290   0.78680   0.28910   Biso      1.000     N          -0.036414999999999996         
         N46       1.0000    0.71990   0.40730   0.23910   Biso      1.000     N          -0.183358           
         N47       1.0000    0.63140   0.43910   0.18730   Biso      1.000     N          -0.025366           
         N48       1.0000    0.70860   0.58580   0.23760   Biso      1.000     N          -0.17080599999999999          
         N49       1.0000    0.31050   0.21810   0.08010   Biso      1.000     N          -0.192774           
         N50       1.0000    0.81050   0.28190   0.41990   Biso      1.000     N          -0.192737           
         N51       1.0000    0.40690   0.25670   0.04810   Biso      1.000     N          -0.046794           
         N52       1.0000    0.41840   0.21730   0.28590   Biso      1.000     N          -0.165274           
         N53       1.0000    0.51090   0.24790   0.24050   Biso      1.000     N          -0.05637999999999999          
         N54       1.0000    0.59710   0.21320   0.28910   Biso      1.000     N          -0.037094999999999996         
         N55       1.0000    0.28010   0.59270   0.23910   Biso      1.000     N          -0.184728           
         N56       1.0000    0.36860   0.56090   0.18730   Biso      1.000     N          -0.027813           
         N57       1.0000    0.37590   0.45390   0.18620   Biso      1.000     N          -0.026218           
         N58       1.0000    0.29140   0.41420   0.23760   Biso      1.000     N          -0.16938399999999998          
         N59       1.0000    0.56340   0.15730   0.36700   Biso      1.000     N          -0.22283200000000003          
         N60       1.0000    0.59310   0.74330   0.04810   Biso      1.000     N          -0.04725  
         N61       1.0000    0.43660   0.84270   0.36700   Biso      1.000     N          -0.22142699999999998          
         N62       1.0000    0.20860   0.91420   0.26240   Biso      1.000     N          -0.170837           
         N63       1.0000    0.06340   0.34270   0.13300   Biso      1.000     N          -0.222859           
         N64       1.0000    0.91840   0.28270   0.21410   Biso      1.000     N          -0.165267           
         N65       1.0000    0.01090   0.25210   0.25950   Biso      1.000     N          -0.056389           
         N66       1.0000    0.09710   0.28680   0.21090   Biso      1.000     N          -0.037077           
         N67       1.0000    0.78010   0.90730   0.26090   Biso      1.000     N          -0.184738           
         N68       1.0000    0.86860   0.93910   0.31270   Biso      1.000     N          -0.027811000000000002         
         N69       1.0000    0.87590   0.04610   0.31380   Biso      1.000     N          -0.026220999999999998         
         N70       1.0000    0.68950   0.78190   0.08010   Biso      1.000     N          -0.191937           
         N71       1.0000    0.18950   0.71810   0.41990   Biso      1.000     N          -0.191978           
         N72       1.0000    0.79140   0.08580   0.26240   Biso      1.000     N          -0.169378           
         N73       1.0000    0.93660   0.65730   0.13300   Biso      1.000     N          -0.221453           
         N74       1.0000    0.08160   0.71730   0.21410   Biso      1.000     N          -0.164521           
         N75       1.0000    0.98910   0.74790   0.25950   Biso      1.000     N          -0.057145           
         N76       1.0000    0.90290   0.71320   0.21090   Biso      1.000     N          -0.036397000000000006         
         N77       1.0000    0.21990   0.09270   0.26090   Biso      1.000     N          -0.183366           
         N78       1.0000    0.13140   0.06090   0.31270   Biso      1.000     N          -0.025407           
         N79       1.0000    0.12410   0.95390   0.31380   Biso      1.000     N          -0.02883  
         N80       1.0000    0.09310   0.75670   0.45190   Biso      1.000     N          -0.047211           
         O1        1.0000    0.93850   0.91060   0.50000   Biso      1.000     O          -0.816451           
         O2        1.0000    0.56150   0.41060   0.00000   Biso      1.000     O          -0.814182           
         O3        1.0000    0.43850   0.58940   0.00000   Biso      1.000     O          -0.81645  
         O4        1.0000    0.06150   0.08940   0.50000   Biso      1.000     O          -0.814186 