
##########################################################################
#               Crystallographic Information Format file
#               Produced by PyCifRW module
#
#  This is a CIF file.  CIF has been adopted by the International
#  Union of Crystallography as the standard for data archiving and
#  transmission.
#
#  For information on this file format, follow the CIF links at
#  http://www.iucr.org
##########################################################################

data_image0

_cell_length_a                          9.5454
_cell_length_b                          14.6719
_cell_length_c                          9.479
_cell_angle_alpha                       90
_cell_angle_beta                        110.419
_cell_angle_gamma                       90
_symmetry_space_group_name_H-M          'P 1'
_symmetry_int_tables_number             1
loop_
  _symmetry_equiv_pos_as_xyz
         'x, y, z' 
loop_
  _atom_site_label
  _atom_site_occupancy
  _atom_site_fract_x
  _atom_site_fract_y
  _atom_site_fract_z
  _atom_site_thermal_displace_type
  _atom_site_B_iso_or_equiv
  _atom_site_type_symbol
  _atom_site_charge
         C1        1.0000    0.30130   0.35030   0.99740   Biso      1.000     C          0.507698  
         C2        1.0000    0.19190   0.14530   0.95700   Biso      1.000     C          0.060438  
         C3        1.0000    0.36670   0.49070   0.87530   Biso      1.000     C          -0.024962           
         C4        1.0000    0.46590   0.56140   0.88350   Biso      1.000     C          -0.126853           
         C5        1.0000    0.22000   0.48190   0.74700   Biso      1.000     C          0.551585  
         C6        1.0000    0.69870   0.64970   0.00260   Biso      1.000     C          0.507698  
         C7        1.0000    0.59610   0.57170   0.00330   Biso      1.000     C          -0.039474           
         C8        1.0000    0.63330   0.50930   0.12470   Biso      1.000     C          -0.024962           
         C9        1.0000    0.53410   0.43860   0.11650   Biso      1.000     C          -0.126853           
         C10       1.0000    0.78000   0.98190   0.75300   Biso      1.000     C          0.551616  
         C11       1.0000    0.19190   0.35470   0.45700   Biso      1.000     C          0.06043099999999999           
         C12       1.0000    0.53410   0.06140   0.61650   Biso      1.000     C          -0.126851           
         C13       1.0000    0.40390   0.42830   0.99670   Biso      1.000     C          -0.039473           
         C14       1.0000    0.63330   0.99070   0.62470   Biso      1.000     C          -0.024990000000000002         
         C15       1.0000    0.69870   0.85030   0.50260   Biso      1.000     C          0.507704  
         C16       1.0000    0.04830   0.27600   0.26970   Biso      1.000     C          0.07948200000000001           
         C17       1.0000    0.95170   0.72400   0.73030   Biso      1.000     C          0.07948200000000001           
         C18       1.0000    0.30130   0.14970   0.49740   Biso      1.000     C          0.5077050000000001  
         C19       1.0000    0.80810   0.64530   0.54300   Biso      1.000     C          0.06043099999999999           
         C20       1.0000    0.40390   0.07170   0.49670   Biso      1.000     C          -0.039473           
         C21       1.0000    0.36670   0.00930   0.37530   Biso      1.000     C          -0.024992           
         C22       1.0000    0.46590   0.93860   0.38350   Biso      1.000     C          -0.126848           
         C23       1.0000    0.22000   0.01810   0.24700   Biso      1.000     C          0.551616  
         C24       1.0000    0.95170   0.77600   0.23030   Biso      1.000     C          0.079483  
         C25       1.0000    0.80810   0.85470   0.04300   Biso      1.000     C          0.060437  
         C26       1.0000    0.78000   0.51810   0.25300   Biso      1.000     C          0.551586  
         C27       1.0000    0.59610   0.92830   0.50330   Biso      1.000     C          -0.039473           
         C28       1.0000    0.04830   0.22400   0.76970   Biso      1.000     C          0.079483  
         Cu1       1.0000    0.00000   0.50000   0.50000   Biso      1.000     Cu          0.74457   
         Cu2       1.0000    0.00000   0.00000   0.00000   Biso      1.000     Cu          0.7446010000000001  
         H1        1.0000    0.27600   0.37570   0.53850   Biso      1.000     H          0.12721400000000002           
         H2        1.0000    0.55740   0.39590   0.19680   Biso      1.000     H          0.130333  
         H3        1.0000    0.72400   0.87570   0.96150   Biso      1.000     H          0.1272    
         H4        1.0000    0.44260   0.89590   0.30320   Biso      1.000     H          0.130327  
         H5        1.0000    0.63160   0.78070   0.64660   Biso      1.000     H          0.31168   
         H6        1.0000    0.72400   0.62430   0.46150   Biso      1.000     H          0.12721400000000002           
         H7        1.0000    0.01250   0.22990   0.19540   Biso      1.000     H          0.139148  
         H8        1.0000    0.98750   0.77010   0.80460   Biso      1.000     H          0.139148  
         H9        1.0000    0.01250   0.27010   0.69540   Biso      1.000     H          0.13915999999999998           
         H10       1.0000    0.55740   0.10410   0.69680   Biso      1.000     H          0.130328  
         H11       1.0000    0.36840   0.21930   0.35340   Biso      1.000     H          0.311681  
         H12       1.0000    0.63160   0.71930   0.14660   Biso      1.000     H          0.311682  
         H13       1.0000    0.98750   0.72990   0.30460   Biso      1.000     H          0.13915999999999998           
         H14       1.0000    0.27600   0.12430   0.03850   Biso      1.000     H          0.1272    
         H15       1.0000    0.36840   0.28070   0.85340   Biso      1.000     H          0.311683  
         H16       1.0000    0.44260   0.60410   0.80320   Biso      1.000     H          0.130333  
         N1        1.0000    0.30150   0.21700   0.39780   Biso      1.000     N          -0.376352           
         N2        1.0000    0.81090   0.78140   0.12820   Biso      1.000     N          0.19345199999999999           
         N3        1.0000    0.03050   0.84460   0.21000   Biso      1.000     N          -0.17080499999999998          
         N4        1.0000    0.93850   0.89200   0.08990   Biso      1.000     N          -0.16048199999999999          
         N5        1.0000    0.93850   0.60800   0.58990   Biso      1.000     N          -0.160524           
         N6        1.0000    0.03050   0.65540   0.71000   Biso      1.000     N          -0.17077699999999998          
         N7        1.0000    0.81090   0.71860   0.62820   Biso      1.000     N          0.193446  
         N8        1.0000    0.18910   0.28140   0.37180   Biso      1.000     N          0.193449  
         N9        1.0000    0.69850   0.78300   0.60220   Biso      1.000     N          -0.376349           
         N10       1.0000    0.18910   0.21860   0.87180   Biso      1.000     N          0.19345199999999999           
         N11       1.0000    0.96950   0.15540   0.79000   Biso      1.000     N          -0.17080499999999998          
         N12       1.0000    0.06150   0.10800   0.91010   Biso      1.000     N          -0.160483           
         N13       1.0000    0.06150   0.39200   0.41010   Biso      1.000     N          -0.160524           
         N14       1.0000    0.96950   0.34460   0.29000   Biso      1.000     N          -0.17077699999999998          
         N15       1.0000    0.30150   0.28300   0.89780   Biso      1.000     N          -0.376345           
         N16       1.0000    0.69850   0.71700   0.10220   Biso      1.000     N          -0.376344           
         O1        1.0000    0.76530   0.84540   0.41450   Biso      1.000     O          -0.47241400000000006          
         O2        1.0000    0.88170   0.56360   0.23940   Biso      1.000     O          -0.55912  
         O3        1.0000    0.76530   0.65460   0.91450   Biso      1.000     O          -0.472405           
         O4        1.0000    0.21570   0.97830   0.12690   Biso      1.000     O          -0.542864           
         O5        1.0000    0.11830   0.06360   0.26060   Biso      1.000     O          -0.559136           
         O6        1.0000    0.21570   0.52170   0.62690   Biso      1.000     O          -0.5428430000000001           
         O7        1.0000    0.11830   0.43640   0.76060   Biso      1.000     O          -0.55912  
         O8        1.0000    0.23470   0.34540   0.08550   Biso      1.000     O          -0.472405           
         O9        1.0000    0.78430   0.02170   0.87310   Biso      1.000     O          -0.542863           
         O10       1.0000    0.88170   0.93640   0.73940   Biso      1.000     O          -0.559135           
         O11       1.0000    0.78430   0.47830   0.37310   Biso      1.000     O          -0.5428430000000001           
         O12       1.0000    0.23470   0.15460   0.58550   Biso      1.000     O          -0.47241400000000006 