
##########################################################################
#               Crystallographic Information Format file
#               Produced by PyCifRW module
#
#  This is a CIF file.  CIF has been adopted by the International
#  Union of Crystallography as the standard for data archiving and
#  transmission.
#
#  For information on this file format, follow the CIF links at
#  http://www.iucr.org
##########################################################################

data_image0

_cell_length_a                          10.3265
_cell_length_b                          14.1976
_cell_length_c                          18.2477
_cell_angle_alpha                       90
_cell_angle_beta                        93.759
_cell_angle_gamma                       90
_symmetry_space_group_name_H-M          'P 1'
_symmetry_int_tables_number             1
loop_
  _symmetry_equiv_pos_as_xyz
         'x, y, z' 
loop_
  _atom_site_label
  _atom_site_occupancy
  _atom_site_fract_x
  _atom_site_fract_y
  _atom_site_fract_z
  _atom_site_thermal_displace_type
  _atom_site_B_iso_or_equiv
  _atom_site_type_symbol
  _atom_site_charge
         C1        1.0000    0.85630   0.49950   0.35763   Biso      1.000     C          0.566787  
         C2        1.0000    0.91650   0.17580   0.19825   Biso      1.000     C          0.075612  
         C3        1.0000    0.14370   0.50050   0.64237   Biso      1.000     C          0.566787  
         C4        1.0000    0.08310   0.42636   0.98463   Biso      1.000     C          -0.138213           
         C5        1.0000    0.93100   0.49840   0.43151   Biso      1.000     C          -0.032831           
         C6        1.0000    0.07620   0.62950   0.38866   Biso      1.000     C          0.506317  
         C7        1.0000    0.35630   0.00050   0.35763   Biso      1.000     C          0.566787  
         C8        1.0000    0.14110   0.50324   0.86779   Biso      1.000     C          0.553033  
         C9        1.0000    0.93350   0.49858   0.06437   Biso      1.000     C          -0.025836           
         C10       1.0000    0.95410   0.65553   0.89891   Biso      1.000     C          0.505376  
         C11       1.0000    0.56650   0.99858   0.93563   Biso      1.000     C          -0.025836           
         C12       1.0000    0.01720   0.42495   0.04866   Biso      1.000     C          -0.038610000000000005         
         C13       1.0000    0.39450   0.34350   0.66529   Biso      1.000     C          0.052829999999999995          
         C14       1.0000    0.03440   0.56012   0.44531   Biso      1.000     C          -0.038218           
         C15       1.0000    0.43100   0.00160   0.43151   Biso      1.000     C          -0.032832           
         C16       1.0000    0.02550   0.23670   0.73970   Biso      1.000     C          0.07220700000000001           
         C17       1.0000    0.08350   0.82420   0.80175   Biso      1.000     C          0.075612  
         C18       1.0000    0.89450   0.15650   0.66529   Biso      1.000     C          0.052829999999999995          
         C19       1.0000    0.57620   0.87050   0.38866   Biso      1.000     C          0.506317  
         C20       1.0000    0.85890   0.49676   0.13221   Biso      1.000     C          0.553033  
         C21       1.0000    0.52550   0.26330   0.73970   Biso      1.000     C          0.07220700000000001           
         C22       1.0000    0.41650   0.32420   0.19825   Biso      1.000     C          0.075613  
         C23       1.0000    0.35890   0.00324   0.13221   Biso      1.000     C          0.553033  
         C24       1.0000    0.46560   0.06012   0.55469   Biso      1.000     C          -0.038218           
         C25       1.0000    0.53440   0.93988   0.44531   Biso      1.000     C          -0.038218           
         C26       1.0000    0.60550   0.65650   0.33471   Biso      1.000     C          0.052829999999999995          
         C27       1.0000    0.41690   0.92636   0.01537   Biso      1.000     C          -0.138213           
         C28       1.0000    0.45410   0.84447   0.89891   Biso      1.000     C          0.505376  
         C29       1.0000    0.58310   0.07364   0.98463   Biso      1.000     C          -0.138214           
         C30       1.0000    0.39700   0.06190   0.48733   Biso      1.000     C          -0.134242           
         C31       1.0000    0.06900   0.50160   0.56849   Biso      1.000     C          -0.032832           
         C32       1.0000    0.58350   0.67580   0.80175   Biso      1.000     C          0.075612  
         C33       1.0000    0.04590   0.34447   0.10109   Biso      1.000     C          0.505376  
         C34       1.0000    0.10300   0.56190   0.51267   Biso      1.000     C          -0.134242           
         C35       1.0000    0.54590   0.15553   0.10109   Biso      1.000     C          0.505376  
         C36       1.0000    0.97450   0.76330   0.26030   Biso      1.000     C          0.07220599999999999           
         C37       1.0000    0.51720   0.07505   0.04866   Biso      1.000     C          -0.038610000000000005         
         C38       1.0000    0.92380   0.37050   0.61134   Biso      1.000     C          0.506316  
         C39       1.0000    0.64110   0.99676   0.86779   Biso      1.000     C          0.553033  
         C40       1.0000    0.06650   0.50142   0.93563   Biso      1.000     C          -0.025836           
         C41       1.0000    0.64370   0.99950   0.64237   Biso      1.000     C          0.566787  
         C42       1.0000    0.42380   0.12950   0.61134   Biso      1.000     C          0.506317  
         C43       1.0000    0.98280   0.57505   0.95134   Biso      1.000     C          -0.038609           
         C44       1.0000    0.89700   0.43810   0.48733   Biso      1.000     C          -0.134245           
         C45       1.0000    0.96560   0.43988   0.55469   Biso      1.000     C          -0.038216           
         C46       1.0000    0.08820   0.13754   0.14259   Biso      1.000     C          0.059086  
         C47       1.0000    0.48280   0.92495   0.95134   Biso      1.000     C          -0.038610000000000005         
         C48       1.0000    0.41180   0.63754   0.85741   Biso      1.000     C          0.059086  
         C49       1.0000    0.91690   0.57364   0.01537   Biso      1.000     C          -0.138214           
         C50       1.0000    0.60300   0.93810   0.51267   Biso      1.000     C          -0.134242           
         C51       1.0000    0.91180   0.86246   0.85741   Biso      1.000     C          0.059086  
         C52       1.0000    0.47450   0.73670   0.26030   Biso      1.000     C          0.07220599999999999           
         C53       1.0000    0.56900   0.99840   0.56849   Biso      1.000     C          -0.032833           
         C54       1.0000    0.43350   0.00142   0.06437   Biso      1.000     C          -0.025837           
         C55       1.0000    0.58820   0.36246   0.14259   Biso      1.000     C          0.059086  
         C56       1.0000    0.10550   0.84350   0.33471   Biso      1.000     C          0.052828999999999994          
         H1        1.0000    0.66010   0.70750   0.78950   Biso      1.000     H          0.144821  
         H2        1.0000    0.04940   0.27820   0.57700   Biso      1.000     H          0.309044  
         H3        1.0000    0.09200   0.73410   0.94880   Biso      1.000     H          0.31306   
         H4        1.0000    0.32640   0.10420   0.47900   Biso      1.000     H          0.131525  
         H5        1.0000    0.65550   0.63550   0.37710   Biso      1.000     H          0.12936199999999998           
         H6        1.0000    0.08560   0.28320   0.75770   Biso      1.000     H          0.14355   
         H7        1.0000    0.91440   0.71680   0.24230   Biso      1.000     H          0.14355   
         H8        1.0000    0.65430   0.36420   0.10880   Biso      1.000     H          0.12106099999999999           
         H9        1.0000    0.90800   0.26590   0.05120   Biso      1.000     H          0.31306   
         H10       1.0000    0.63950   0.12400   0.97420   Biso      1.000     H          0.130207  
         H11       1.0000    0.58560   0.21680   0.75770   Biso      1.000     H          0.14355   
         H12       1.0000    0.54940   0.22180   0.57700   Biso      1.000     H          0.309044  
         H13       1.0000    0.86050   0.62400   0.02580   Biso      1.000     H          0.130207  
         H14       1.0000    0.13950   0.37600   0.97420   Biso      1.000     H          0.130207  
         H15       1.0000    0.40800   0.23410   0.05120   Biso      1.000     H          0.31306   
         H16       1.0000    0.16010   0.79250   0.78950   Biso      1.000     H          0.144821  
         H17       1.0000    0.34570   0.63580   0.89120   Biso      1.000     H          0.12106099999999999           
         H18       1.0000    0.84450   0.13550   0.62290   Biso      1.000     H          0.12936199999999998           
         H19       1.0000    0.33990   0.29250   0.21050   Biso      1.000     H          0.144821  
         H20       1.0000    0.41440   0.78320   0.24230   Biso      1.000     H          0.14355   
         H21       1.0000    0.34450   0.36450   0.62290   Biso      1.000     H          0.12936199999999998           
         H22       1.0000    0.15550   0.86450   0.37710   Biso      1.000     H          0.12936199999999998           
         H23       1.0000    0.15430   0.13580   0.10880   Biso      1.000     H          0.12106099999999999           
         H24       1.0000    0.84570   0.86420   0.89120   Biso      1.000     H          0.12105999999999999           
         H25       1.0000    0.45060   0.77820   0.42300   Biso      1.000     H          0.309044  
         H26       1.0000    0.82640   0.39580   0.47900   Biso      1.000     H          0.131525  
         H27       1.0000    0.17360   0.60420   0.52100   Biso      1.000     H          0.131525  
         H28       1.0000    0.59200   0.76590   0.94880   Biso      1.000     H          0.31306   
         H29       1.0000    0.95060   0.72180   0.42300   Biso      1.000     H          0.309044  
         H30       1.0000    0.36050   0.87600   0.02580   Biso      1.000     H          0.130207  
         H31       1.0000    0.83990   0.20750   0.21050   Biso      1.000     H          0.144821  
         H32       1.0000    0.67360   0.89580   0.52100   Biso      1.000     H          0.131525  
         N1        1.0000    0.53350   0.76827   0.91155   Biso      1.000     N          -0.371839           
         N2        1.0000    0.46650   0.23173   0.08845   Biso      1.000     N          -0.371839           
         N3        1.0000    0.97820   0.22826   0.66807   Biso      1.000     N          0.190876  
         N4        1.0000    0.02440   0.82910   0.22056   Biso      1.000     N          -0.18318099999999998          
         N5        1.0000    0.00460   0.70995   0.38880   Biso      1.000     N          -0.379986           
         N6        1.0000    0.47200   0.39263   0.23607   Biso      1.000     N          -0.179732           
         N7        1.0000    0.60670   0.61978   0.26870   Biso      1.000     N          -0.161557           
         N8        1.0000    0.58330   0.41567   0.20073   Biso      1.000     N          -0.16483399999999998          
         N9        1.0000    0.91670   0.91567   0.79927   Biso      1.000     N          -0.16483599999999998          
         N10       1.0000    0.50460   0.79005   0.38880   Biso      1.000     N          -0.379986           
         N11       1.0000    0.41670   0.58433   0.79927   Biso      1.000     N          -0.16483599999999998          
         N12       1.0000    0.48450   0.30486   0.13832   Biso      1.000     N          0.178965  
         N13       1.0000    0.08330   0.08433   0.20073   Biso      1.000     N          -0.16483599999999998          
         N14       1.0000    0.39330   0.38022   0.73130   Biso      1.000     N          -0.161557           
         N15       1.0000    0.52180   0.72826   0.33193   Biso      1.000     N          0.190881  
         N16       1.0000    0.47820   0.27174   0.66807   Biso      1.000     N          0.190875  
         N17       1.0000    0.02180   0.77174   0.33193   Biso      1.000     N          0.190881  
         N18       1.0000    0.97560   0.17090   0.77944   Biso      1.000     N          -0.18318299999999998          
         N19       1.0000    0.99540   0.29005   0.61120   Biso      1.000     N          -0.37998000000000004          
         N20       1.0000    0.52800   0.60737   0.76393   Biso      1.000     N          -0.179731           
         N21       1.0000    0.02800   0.89263   0.76393   Biso      1.000     N          -0.179731           
         N22       1.0000    0.51550   0.69514   0.86168   Biso      1.000     N          0.178965  
         N23       1.0000    0.03350   0.73173   0.91155   Biso      1.000     N          -0.371839           
         N24       1.0000    0.96650   0.26827   0.08845   Biso      1.000     N          -0.371839           
         N25       1.0000    0.97200   0.10737   0.23607   Biso      1.000     N          -0.17973  
         N26       1.0000    0.01550   0.80486   0.86168   Biso      1.000     N          0.178965  
         N27       1.0000    0.89330   0.11978   0.73130   Biso      1.000     N          -0.161553           
         N28       1.0000    0.52440   0.67090   0.22056   Biso      1.000     N          -0.183178           
         N29       1.0000    0.47560   0.32910   0.77944   Biso      1.000     N          -0.183178           
         N30       1.0000    0.98450   0.19514   0.13832   Biso      1.000     N          0.178965  
         N31       1.0000    0.49540   0.20995   0.61120   Biso      1.000     N          -0.37998000000000004          
         N32       1.0000    0.10670   0.88022   0.26870   Biso      1.000     N          -0.161553           
         O1        1.0000    0.73420   0.94440   0.65399   Biso      1.000     O          -0.537647           
         O2        1.0000    0.88620   0.55684   0.31025   Biso      1.000     O          -0.553133           
         O3        1.0000    0.38620   0.94316   0.31025   Biso      1.000     O          -0.553133           
         O4        1.0000    0.78730   0.56628   0.14459   Biso      1.000     O          -0.538787           
         O5        1.0000    0.76580   0.44440   0.34601   Biso      1.000     O          -0.537647           
         O6        1.0000    0.16770   0.61887   0.35131   Biso      1.000     O          -0.464226           
         O7        1.0000    0.83230   0.38113   0.64869   Biso      1.000     O          -0.464226           
         O8        1.0000    0.36111   0.84439   0.85486   Biso      1.000     O          -0.463257           
         O9        1.0000    0.13889   0.34439   0.14514   Biso      1.000     O          -0.463257           
         O10       1.0000    0.61380   0.05684   0.68975   Biso      1.000     O          -0.553133           
         O11       1.0000    0.11380   0.44316   0.68975   Biso      1.000     O          -0.553133           
         O12       1.0000    0.71270   0.06628   0.85541   Biso      1.000     O          -0.538787           
         O13       1.0000    0.36763   0.07394   0.17313   Biso      1.000     O          -0.540856           
         O14       1.0000    0.23420   0.55560   0.65399   Biso      1.000     O          -0.537647           
         O15       1.0000    0.26580   0.05560   0.34601   Biso      1.000     O          -0.537647           
         O16       1.0000    0.21270   0.43372   0.85541   Biso      1.000     O          -0.538787           
         O17       1.0000    0.86111   0.65561   0.85486   Biso      1.000     O          -0.463257           
         O18       1.0000    0.86763   0.42606   0.17313   Biso      1.000     O          -0.540856           
         O19       1.0000    0.33230   0.11887   0.64869   Biso      1.000     O          -0.464226           
         O20       1.0000    0.66770   0.88113   0.35131   Biso      1.000     O          -0.464226           
         O21       1.0000    0.28730   0.93372   0.14459   Biso      1.000     O          -0.538787           
         O22       1.0000    0.13237   0.57394   0.82687   Biso      1.000     O          -0.540856           
         O23       1.0000    0.63889   0.15561   0.14514   Biso      1.000     O          -0.463257           
         O24       1.0000    0.63237   0.92606   0.82687   Biso      1.000     O          -0.540856           
         Zn1       1.0000    0.78052   0.01057   0.76073   Biso      1.000     Zn          0.763263  
         Zn2       1.0000    0.28052   0.48943   0.76073   Biso      1.000     Zn          0.763261  
         Zn3       1.0000    0.71948   0.51057   0.23927   Biso      1.000     Zn          0.763262  
         Zn4       1.0000    0.21948   0.98943   0.23927   Biso      1.000     Zn          0.763262 