
##########################################################################
#               Crystallographic Information Format file
#               Produced by PyCifRW module
#
#  This is a CIF file.  CIF has been adopted by the International
#  Union of Crystallography as the standard for data archiving and
#  transmission.
#
#  For information on this file format, follow the CIF links at
#  http://www.iucr.org
##########################################################################

data_image0

_cell_length_a                          9.376
_cell_length_b                          14.919
_cell_length_c                          19.138
_cell_angle_alpha                       90
_cell_angle_beta                        90
_cell_angle_gamma                       90
_symmetry_space_group_name_H-M          'P 1'
_symmetry_int_tables_number             1
loop_
  _symmetry_equiv_pos_as_xyz
         'x, y, z' 
loop_
  _atom_site_label
  _atom_site_occupancy
  _atom_site_fract_x
  _atom_site_fract_y
  _atom_site_fract_z
  _atom_site_thermal_displace_type
  _atom_site_B_iso_or_equiv
  _atom_site_type_symbol
  _atom_site_charge
         C1        1.0000    0.94460   0.84990   0.85090   Biso      1.000     C          0.052524  
         C2        1.0000    0.89810   0.56440   0.01440   Biso      1.000     C          -0.13256600000000002          
         C3        1.0000    0.02710   0.56790   0.45230   Biso      1.000     C          -0.031701           
         C4        1.0000    0.43730   0.14240   0.59770   Biso      1.000     C          0.503008  
         C5        1.0000    0.55540   0.34990   0.14910   Biso      1.000     C          0.052525  
         C6        1.0000    0.97290   0.43210   0.54770   Biso      1.000     C          -0.031701           
         C7        1.0000    0.39810   0.93560   0.01440   Biso      1.000     C          -0.13256600000000002          
         C8        1.0000    0.94460   0.15010   0.64910   Biso      1.000     C          0.052525  
         C9        1.0000    0.60190   0.93560   0.51440   Biso      1.000     C          -0.13256600000000002          
         C10       1.0000    0.92460   0.49720   0.06280   Biso      1.000     C          -0.026681           
         C11       1.0000    0.02710   0.43210   0.04770   Biso      1.000     C          -0.031701           
         C12       1.0000    0.93600   0.76240   0.28280   Biso      1.000     C          0.0801    
         C13       1.0000    0.56270   0.85760   0.40230   Biso      1.000     C          0.503008  
         C14       1.0000    0.60190   0.06440   0.98560   Biso      1.000     C          -0.13256600000000002          
         C15       1.0000    0.43600   0.26240   0.21720   Biso      1.000     C          0.080099  
         C16       1.0000    0.56270   0.14240   0.09770   Biso      1.000     C          0.503008  
         C17       1.0000    0.34310   0.00180   0.13090   Biso      1.000     C          0.550178  
         C18       1.0000    0.97290   0.56790   0.95230   Biso      1.000     C          -0.031702           
         C19       1.0000    0.06400   0.23760   0.71720   Biso      1.000     C          0.080099  
         C20       1.0000    0.05540   0.15010   0.14910   Biso      1.000     C          0.052525  
         C21       1.0000    0.52710   0.06790   0.04770   Biso      1.000     C          -0.031702           
         C22       1.0000    0.93730   0.35760   0.59770   Biso      1.000     C          0.503008  
         C23       1.0000    0.39810   0.06440   0.48560   Biso      1.000     C          -0.13256600000000002          
         C24       1.0000    0.65690   0.00180   0.63090   Biso      1.000     C          0.550178  
         C25       1.0000    0.93600   0.23760   0.21720   Biso      1.000     C          0.0801    
         C26       1.0000    0.93730   0.64240   0.90230   Biso      1.000     C          0.503008  
         C27       1.0000    0.47290   0.93210   0.95230   Biso      1.000     C          -0.031702           
         C28       1.0000    0.56400   0.26240   0.71720   Biso      1.000     C          0.0801    
         C29       1.0000    0.65690   0.99820   0.86910   Biso      1.000     C          0.550178  
         C30       1.0000    0.84310   0.50180   0.36910   Biso      1.000     C          0.550178  
         C31       1.0000    0.84310   0.49820   0.13090   Biso      1.000     C          0.550178  
         C32       1.0000    0.56400   0.73760   0.78280   Biso      1.000     C          0.0801    
         C33       1.0000    0.05540   0.84990   0.35090   Biso      1.000     C          0.052524  
         C34       1.0000    0.10190   0.56440   0.51440   Biso      1.000     C          -0.13256700000000002          
         C35       1.0000    0.06270   0.35760   0.09770   Biso      1.000     C          0.503008  
         C36       1.0000    0.55540   0.65010   0.35090   Biso      1.000     C          0.052524  
         C37       1.0000    0.15690   0.50180   0.86910   Biso      1.000     C          0.550178  
         C38       1.0000    0.42460   0.00280   0.06280   Biso      1.000     C          -0.026681           
         C39       1.0000    0.43600   0.73760   0.28280   Biso      1.000     C          0.0801    
         C40       1.0000    0.07540   0.50280   0.93720   Biso      1.000     C          -0.026681           
         C41       1.0000    0.06270   0.64240   0.40230   Biso      1.000     C          0.503008  
         C42       1.0000    0.44460   0.34990   0.64910   Biso      1.000     C          0.052524  
         C43       1.0000    0.06400   0.76240   0.78280   Biso      1.000     C          0.0801    
         C44       1.0000    0.07540   0.49720   0.56280   Biso      1.000     C          -0.026681           
         C45       1.0000    0.57540   0.00280   0.56280   Biso      1.000     C          -0.026680000000000002         
         C46       1.0000    0.89810   0.43560   0.48560   Biso      1.000     C          -0.13256700000000002          
         C47       1.0000    0.42460   0.99720   0.43720   Biso      1.000     C          -0.026681           
         C48       1.0000    0.52710   0.93210   0.45230   Biso      1.000     C          -0.031702           
         C49       1.0000    0.57540   0.99720   0.93720   Biso      1.000     C          -0.026681           
         C50       1.0000    0.92460   0.50280   0.43720   Biso      1.000     C          -0.026681           
         C51       1.0000    0.10190   0.43560   0.98560   Biso      1.000     C          -0.13256700000000002          
         C52       1.0000    0.43730   0.85760   0.90230   Biso      1.000     C          0.503009  
         C53       1.0000    0.44460   0.65010   0.85090   Biso      1.000     C          0.052524  
         C54       1.0000    0.15690   0.49820   0.63090   Biso      1.000     C          0.550178  
         C55       1.0000    0.47290   0.06790   0.54770   Biso      1.000     C          -0.031702           
         C56       1.0000    0.34310   0.99820   0.36910   Biso      1.000     C          0.550178  
         Cd1       1.0000    0.69059   0.50000   0.25000   Biso      1.000     Cd          0.8605010000000001  
         Cd2       1.0000    0.30941   0.50000   0.75000   Biso      1.000     Cd          0.8605    
         Cd3       1.0000    0.80941   0.00000   0.75000   Biso      1.000     Cd          0.8605010000000001  
         Cd4       1.0000    0.19059   0.00000   0.25000   Biso      1.000     Cd          0.8605010000000001  
         H1        1.0000    0.10120   0.12530   0.10920   Biso      1.000     H          0.12671400000000002           
         H2        1.0000    0.17230   0.60850   0.52410   Biso      1.000     H          0.131732  
         H3        1.0000    0.11800   0.71280   0.76640   Biso      1.000     H          0.138036  
         H4        1.0000    0.40320   0.78300   0.43700   Biso      1.000     H          0.311709  
         H5        1.0000    0.59680   0.78300   0.93700   Biso      1.000     H          0.31171   
         H6        1.0000    0.61800   0.78720   0.76640   Biso      1.000     H          0.138036  
         H7        1.0000    0.89880   0.12530   0.60920   Biso      1.000     H          0.12671400000000002           
         H8        1.0000    0.60120   0.37470   0.10920   Biso      1.000     H          0.12671400000000002           
         H9        1.0000    0.88200   0.71280   0.26640   Biso      1.000     H          0.138036  
         H10       1.0000    0.09680   0.71700   0.93700   Biso      1.000     H          0.31171   
         H11       1.0000    0.90320   0.71700   0.43700   Biso      1.000     H          0.311709  
         H12       1.0000    0.88200   0.28720   0.23360   Biso      1.000     H          0.138036  
         H13       1.0000    0.32770   0.10850   0.47590   Biso      1.000     H          0.131732  
         H14       1.0000    0.39880   0.62530   0.89080   Biso      1.000     H          0.12671400000000002           
         H15       1.0000    0.67230   0.89150   0.52410   Biso      1.000     H          0.131732  
         H16       1.0000    0.17230   0.39150   0.97590   Biso      1.000     H          0.131732  
         H17       1.0000    0.82770   0.60850   0.02410   Biso      1.000     H          0.131732  
         H18       1.0000    0.40320   0.21700   0.06300   Biso      1.000     H          0.31171   
         H19       1.0000    0.11800   0.28720   0.73360   Biso      1.000     H          0.138036  
         H20       1.0000    0.82770   0.39150   0.47590   Biso      1.000     H          0.131732  
         H21       1.0000    0.39880   0.37470   0.60920   Biso      1.000     H          0.12671400000000002           
         H22       1.0000    0.10120   0.87470   0.39080   Biso      1.000     H          0.12671400000000002           
         H23       1.0000    0.67230   0.10850   0.97590   Biso      1.000     H          0.131732  
         H24       1.0000    0.60120   0.62530   0.39080   Biso      1.000     H          0.12671400000000002           
         H25       1.0000    0.09680   0.28300   0.56300   Biso      1.000     H          0.31171   
         H26       1.0000    0.61800   0.21280   0.73360   Biso      1.000     H          0.138036  
         H27       1.0000    0.59680   0.21700   0.56300   Biso      1.000     H          0.31171   
         H28       1.0000    0.90320   0.28300   0.06300   Biso      1.000     H          0.31171   
         H29       1.0000    0.32770   0.89150   0.02410   Biso      1.000     H          0.131732  
         H30       1.0000    0.38200   0.78720   0.26640   Biso      1.000     H          0.138036  
         H31       1.0000    0.89880   0.87470   0.89080   Biso      1.000     H          0.12671400000000002           
         H32       1.0000    0.38200   0.21280   0.23360   Biso      1.000     H          0.138036  
         N1        1.0000    0.97880   0.82890   0.24410   Biso      1.000     N          -0.186284           
         N2        1.0000    0.55610   0.38440   0.21180   Biso      1.000     N          -0.179201           
         N3        1.0000    0.05610   0.11560   0.21180   Biso      1.000     N          -0.179201           
         N4        1.0000    0.94390   0.11560   0.71180   Biso      1.000     N          -0.179201           
         N5        1.0000    0.52060   0.27380   0.65010   Biso      1.000     N          0.189526  
         N6        1.0000    0.97940   0.22620   0.15010   Biso      1.000     N          0.189526  
         N7        1.0000    0.47940   0.27380   0.15010   Biso      1.000     N          0.189526  
         N8        1.0000    0.46780   0.21190   0.09610   Biso      1.000     N          -0.38014899999999996          
         N9        1.0000    0.53220   0.78810   0.90390   Biso      1.000     N          -0.380154           
         N10       1.0000    0.02060   0.77380   0.84990   Biso      1.000     N          0.189526  
         N11       1.0000    0.03220   0.71190   0.90390   Biso      1.000     N          -0.38014899999999996          
         N12       1.0000    0.02060   0.22620   0.65010   Biso      1.000     N          0.189526  
         N13       1.0000    0.52120   0.32890   0.75590   Biso      1.000     N          -0.186284           
         N14       1.0000    0.02120   0.82890   0.74410   Biso      1.000     N          -0.186284           
         N15       1.0000    0.44390   0.38440   0.71180   Biso      1.000     N          -0.179195           
         N16       1.0000    0.53220   0.21190   0.59610   Biso      1.000     N          -0.38014899999999996          
         N17       1.0000    0.94390   0.88440   0.78820   Biso      1.000     N          -0.179195           
         N18       1.0000    0.52120   0.67110   0.74410   Biso      1.000     N          -0.186284           
         N19       1.0000    0.05610   0.88440   0.28820   Biso      1.000     N          -0.179195           
         N20       1.0000    0.97880   0.17110   0.25590   Biso      1.000     N          -0.186279           
         N21       1.0000    0.96780   0.28810   0.09610   Biso      1.000     N          -0.38014899999999996          
         N22       1.0000    0.52060   0.72620   0.84990   Biso      1.000     N          0.18953   
         N23       1.0000    0.47880   0.67110   0.24410   Biso      1.000     N          -0.186284           
         N24       1.0000    0.47940   0.72620   0.34990   Biso      1.000     N          0.189526  
         N25       1.0000    0.03220   0.28810   0.59610   Biso      1.000     N          -0.38014899999999996          
         N26       1.0000    0.46780   0.78810   0.40390   Biso      1.000     N          -0.38014899999999996          
         N27       1.0000    0.97940   0.77380   0.34990   Biso      1.000     N          0.189526  
         N28       1.0000    0.47880   0.32890   0.25590   Biso      1.000     N          -0.186279           
         N29       1.0000    0.02120   0.17110   0.75590   Biso      1.000     N          -0.186279           
         N30       1.0000    0.44390   0.61560   0.78820   Biso      1.000     N          -0.179195           
         N31       1.0000    0.55610   0.61560   0.28820   Biso      1.000     N          -0.179195           
         N32       1.0000    0.96780   0.71190   0.40390   Biso      1.000     N          -0.38014899999999996          
         O1        1.0000    0.24500   0.94560   0.13930   Biso      1.000     O          -0.5474760000000001           
         O2        1.0000    0.82880   0.35560   0.63280   Biso      1.000     O          -0.470657           
         O3        1.0000    0.25500   0.44560   0.86070   Biso      1.000     O          -0.5474760000000001           
         O4        1.0000    0.75500   0.05440   0.86070   Biso      1.000     O          -0.5474760000000001           
         O5        1.0000    0.24500   0.05440   0.36070   Biso      1.000     O          -0.5474760000000001           
         O6        1.0000    0.25500   0.55440   0.63930   Biso      1.000     O          -0.5474760000000001           
         O7        1.0000    0.12430   0.55840   0.82300   Biso      1.000     O          -0.559068           
         O8        1.0000    0.74500   0.44560   0.36070   Biso      1.000     O          -0.5474760000000001           
         O9        1.0000    0.17120   0.64440   0.36720   Biso      1.000     O          -0.470657           
         O10       1.0000    0.32880   0.85560   0.86720   Biso      1.000     O          -0.470657           
         O11       1.0000    0.17120   0.35560   0.13280   Biso      1.000     O          -0.470657           
         O12       1.0000    0.74500   0.55440   0.13930   Biso      1.000     O          -0.5474760000000001           
         O13       1.0000    0.87570   0.55840   0.32300   Biso      1.000     O          -0.559068           
         O14       1.0000    0.87570   0.44160   0.17700   Biso      1.000     O          -0.559067           
         O15       1.0000    0.82880   0.64440   0.86720   Biso      1.000     O          -0.470657           
         O16       1.0000    0.37570   0.05840   0.17700   Biso      1.000     O          -0.559068           
         O17       1.0000    0.37570   0.94160   0.32300   Biso      1.000     O          -0.559068           
         O18       1.0000    0.12430   0.44160   0.67700   Biso      1.000     O          -0.559067           
         O19       1.0000    0.67120   0.85560   0.36720   Biso      1.000     O          -0.470657           
         O20       1.0000    0.62430   0.05840   0.67700   Biso      1.000     O          -0.559068           
         O21       1.0000    0.67120   0.14440   0.13280   Biso      1.000     O          -0.470657           
         O22       1.0000    0.32880   0.14440   0.63280   Biso      1.000     O          -0.470657           
         O23       1.0000    0.62430   0.94160   0.82300   Biso      1.000     O          -0.559067           
         O24       1.0000    0.75500   0.94560   0.63930   Biso      1.000     O          -0.5474760000000001 