
##########################################################################
#               Crystallographic Information Format file
#               Produced by PyCifRW module
#
#  This is a CIF file.  CIF has been adopted by the International
#  Union of Crystallography as the standard for data archiving and
#  transmission.
#
#  For information on this file format, follow the CIF links at
#  http://www.iucr.org
##########################################################################

data_image0

_cell_length_a                          10.6823
_cell_length_b                          10.6823
_cell_length_c                          10.6823
_cell_angle_alpha                       106.004
_cell_angle_beta                        106.004
_cell_angle_gamma                       106.004
_symmetry_space_group_name_H-M          'P 1'
_symmetry_int_tables_number             1
loop_
  _symmetry_equiv_pos_as_xyz
         'x, y, z' 
loop_
  _atom_site_label
  _atom_site_occupancy
  _atom_site_fract_x
  _atom_site_fract_y
  _atom_site_fract_z
  _atom_site_thermal_displace_type
  _atom_site_B_iso_or_equiv
  _atom_site_type_symbol
  _atom_site_charge
         C1        1.0000    0.01710   0.22430   0.46080   Biso      1.000     C          0.672376  
         C2        1.0000    0.98290   0.77570   0.53920   Biso      1.000     C          0.672376  
         C3        1.0000    0.78270   0.06540   0.76440   Biso      1.000     C          0.678056  
         C4        1.0000    0.66970   0.95170   0.77510   Biso      1.000     C          -0.458558           
         C5        1.0000    0.53920   0.98290   0.77570   Biso      1.000     C          0.672377  
         C6        1.0000    0.76440   0.78270   0.06540   Biso      1.000     C          0.678055  
         C7        1.0000    0.77510   0.66970   0.95170   Biso      1.000     C          -0.458557           
         C8        1.0000    0.77570   0.53920   0.98290   Biso      1.000     C          0.672377  
         C9        1.0000    0.93460   0.23560   0.21730   Biso      1.000     C          0.678056  
         C10       1.0000    0.04830   0.22490   0.33030   Biso      1.000     C          -0.458557           
         C11       1.0000    0.21730   0.93460   0.23560   Biso      1.000     C          0.678056  
         C12       1.0000    0.33030   0.04830   0.22490   Biso      1.000     C          -0.458558           
         C13       1.0000    0.46080   0.01710   0.22430   Biso      1.000     C          0.672377  
         C14       1.0000    0.23560   0.21730   0.93460   Biso      1.000     C          0.678055  
         C15       1.0000    0.22490   0.33030   0.04830   Biso      1.000     C          -0.458558           
         C16       1.0000    0.22430   0.46080   0.01710   Biso      1.000     C          0.672377  
         C17       1.0000    0.95170   0.77510   0.66970   Biso      1.000     C          -0.458557           
         C18       1.0000    0.06540   0.76440   0.78270   Biso      1.000     C          0.678056  
         Cd1       1.0000    0.25049   0.71545   0.98493   Biso      1.000     Cd          1.05697   
         Cd2       1.0000    0.01507   0.74951   0.28455   Biso      1.000     Cd          1.05697   
         Cd3       1.0000    0.98493   0.25049   0.71545   Biso      1.000     Cd          1.05697   
         Cd4       1.0000    0.71545   0.98493   0.25049   Biso      1.000     Cd          1.05697   
         Cd5       1.0000    0.74951   0.28455   0.01507   Biso      1.000     Cd          1.05697   
         Cd6       1.0000    0.28455   0.01507   0.74951   Biso      1.000     Cd          1.05697   
         H1        1.0000    0.11370   0.28820   0.05460   Biso      1.000     H          0.154348  
         H2        1.0000    0.85690   0.70150   0.62990   Biso      1.000     H          0.178231  
         H3        1.0000    0.94540   0.88630   0.71180   Biso      1.000     H          0.154348  
         H4        1.0000    0.29850   0.37010   0.14310   Biso      1.000     H          0.178231  
         H5        1.0000    0.71180   0.94540   0.88630   Biso      1.000     H          0.154348  
         H6        1.0000    0.70150   0.62990   0.85690   Biso      1.000     H          0.178231  
         H7        1.0000    0.88630   0.71180   0.94540   Biso      1.000     H          0.154348  
         H8        1.0000    0.14310   0.29850   0.37010   Biso      1.000     H          0.178231  
         H9        1.0000    0.05460   0.11370   0.28820   Biso      1.000     H          0.154348  
         H10       1.0000    0.37010   0.14310   0.29850   Biso      1.000     H          0.178231  
         H11       1.0000    0.62990   0.85690   0.70150   Biso      1.000     H          0.178231  
         H12       1.0000    0.28820   0.05460   0.11370   Biso      1.000     H          0.154348  
         O1        1.0000    0.96680   0.33330   0.17650   Biso      1.000     O          -0.536163           
         O2        1.0000    0.86520   0.54840   0.09210   Biso      1.000     O          -0.586877           
         O3        1.0000    0.68300   0.42140   0.89430   Biso      1.000     O          -0.548493           
         O4        1.0000    0.16430   0.81090   0.14470   Biso      1.000     O          -0.609891           
         O5        1.0000    0.89430   0.68300   0.42140   Biso      1.000     O          -0.548494           
         O6        1.0000    0.09210   0.86520   0.54840   Biso      1.000     O          -0.586877           
         O7        1.0000    0.14470   0.16430   0.81090   Biso      1.000     O          -0.609891           
         O8        1.0000    0.81090   0.14470   0.16430   Biso      1.000     O          -0.609891           
         O9        1.0000    0.33330   0.17650   0.96680   Biso      1.000     O          -0.536162           
         O10       1.0000    0.17650   0.96680   0.33330   Biso      1.000     O          -0.536163           
         O11       1.0000    0.57860   0.10570   0.31700   Biso      1.000     O          -0.548493           
         O12       1.0000    0.31700   0.57860   0.10570   Biso      1.000     O          -0.548493           
         O13       1.0000    0.66670   0.82350   0.03320   Biso      1.000     O          -0.536162           
         O14       1.0000    0.85530   0.83570   0.18910   Biso      1.000     O          -0.609891           
         O15       1.0000    0.10570   0.31700   0.57860   Biso      1.000     O          -0.548494           
         O16       1.0000    0.90790   0.13480   0.45160   Biso      1.000     O          -0.586877           
         O17       1.0000    0.82350   0.03320   0.66670   Biso      1.000     O          -0.536163           
         O18       1.0000    0.83570   0.18910   0.85530   Biso      1.000     O          -0.609891           
         O19       1.0000    0.13480   0.45160   0.90790   Biso      1.000     O          -0.586877           
         O20       1.0000    0.03320   0.66670   0.82350   Biso      1.000     O          -0.536163           
         O21       1.0000    0.18910   0.85530   0.83570   Biso      1.000     O          -0.609891           
         O22       1.0000    0.54840   0.09210   0.86520   Biso      1.000     O          -0.586877           
         O23       1.0000    0.45160   0.90790   0.13480   Biso      1.000     O          -0.586877           
         O24       1.0000    0.42140   0.89430   0.68300   Biso      1.000     O          -0.548493 