
##########################################################################
#               Crystallographic Information Format file
#               Produced by PyCifRW module
#
#  This is a CIF file.  CIF has been adopted by the International
#  Union of Crystallography as the standard for data archiving and
#  transmission.
#
#  For information on this file format, follow the CIF links at
#  http://www.iucr.org
##########################################################################

data_image0

_cell_length_a                          10.6678
_cell_length_b                          10.6678
_cell_length_c                          10.6678
_cell_angle_alpha                       105.965
_cell_angle_beta                        105.965
_cell_angle_gamma                       105.965
_symmetry_space_group_name_H-M          'P 1'
_symmetry_int_tables_number             1
loop_
  _symmetry_equiv_pos_as_xyz
         'x, y, z' 
loop_
  _atom_site_label
  _atom_site_occupancy
  _atom_site_fract_x
  _atom_site_fract_y
  _atom_site_fract_z
  _atom_site_thermal_displace_type
  _atom_site_B_iso_or_equiv
  _atom_site_type_symbol
  _atom_site_charge
         C1        1.0000    0.77470   0.53880   0.98170   Biso      1.000     C          0.693634  
         C2        1.0000    0.22530   0.46120   0.01830   Biso      1.000     C          0.693634  
         C3        1.0000    0.93470   0.23530   0.21770   Biso      1.000     C          0.678946  
         C4        1.0000    0.04810   0.22370   0.33070   Biso      1.000     C          -0.49565  
         C5        1.0000    0.01830   0.22530   0.46120   Biso      1.000     C          0.693634  
         C6        1.0000    0.21770   0.93470   0.23530   Biso      1.000     C          0.678946  
         C7        1.0000    0.33070   0.04810   0.22370   Biso      1.000     C          -0.49565  
         C8        1.0000    0.46120   0.01830   0.22530   Biso      1.000     C          0.693634  
         C9        1.0000    0.76470   0.78230   0.06530   Biso      1.000     C          0.678946  
         C10       1.0000    0.77630   0.66930   0.95190   Biso      1.000     C          -0.49565  
         C11       1.0000    0.06530   0.76470   0.78230   Biso      1.000     C          0.678946  
         C12       1.0000    0.95190   0.77630   0.66930   Biso      1.000     C          -0.49565  
         C13       1.0000    0.98170   0.77470   0.53880   Biso      1.000     C          0.693634  
         C14       1.0000    0.78230   0.06530   0.76470   Biso      1.000     C          0.678946  
         C15       1.0000    0.66930   0.95190   0.77630   Biso      1.000     C          -0.495651           
         C16       1.0000    0.53880   0.98170   0.77470   Biso      1.000     C          0.693634  
         C17       1.0000    0.22370   0.33070   0.04810   Biso      1.000     C          -0.49565  
         C18       1.0000    0.23530   0.21770   0.93470   Biso      1.000     C          0.678946  
         Cd1       1.0000    0.98507   0.25033   0.71544   Biso      1.000     Cd          1.054986  
         Cd2       1.0000    0.28456   0.01493   0.74967   Biso      1.000     Cd          1.054986  
         Cd3       1.0000    0.71544   0.98507   0.25033   Biso      1.000     Cd          1.054986  
         Cd4       1.0000    0.25033   0.71544   0.98507   Biso      1.000     Cd          1.054987  
         Cd5       1.0000    0.01493   0.74967   0.28456   Biso      1.000     Cd          1.054986  
         Cd6       1.0000    0.74967   0.28456   0.01493   Biso      1.000     Cd          1.054987  
         H1        1.0000    0.70920   0.93920   0.86310   Biso      1.000     H          0.183097  
         H2        1.0000    0.30120   0.35790   0.13600   Biso      1.000     H          0.177603  
         H3        1.0000    0.13690   0.29080   0.06080   Biso      1.000     H          0.183097  
         H4        1.0000    0.64210   0.86400   0.69880   Biso      1.000     H          0.177603  
         H5        1.0000    0.06080   0.13690   0.29080   Biso      1.000     H          0.183097  
         H6        1.0000    0.35790   0.13600   0.30120   Biso      1.000     H          0.177603  
         H7        1.0000    0.29080   0.06080   0.13690   Biso      1.000     H          0.183097  
         H8        1.0000    0.69880   0.64210   0.86400   Biso      1.000     H          0.177603  
         H9        1.0000    0.86310   0.70920   0.93920   Biso      1.000     H          0.183097  
         H10       1.0000    0.86400   0.69880   0.64210   Biso      1.000     H          0.177603  
         H11       1.0000    0.13600   0.30120   0.35790   Biso      1.000     H          0.177603  
         H12       1.0000    0.93920   0.86310   0.70920   Biso      1.000     H          0.183097  
         O1        1.0000    0.66630   0.82290   0.03220   Biso      1.000     O          -0.541563           
         O2        1.0000    0.86570   0.54860   0.09240   Biso      1.000     O          -0.598375           
         O3        1.0000    0.68330   0.42190   0.89450   Biso      1.000     O          -0.544098           
         O4        1.0000    0.18900   0.85540   0.83580   Biso      1.000     O          -0.608581           
         O5        1.0000    0.89450   0.68330   0.42190   Biso      1.000     O          -0.544098           
         O6        1.0000    0.09240   0.86570   0.54860   Biso      1.000     O          -0.598375           
         O7        1.0000    0.83580   0.18900   0.85540   Biso      1.000     O          -0.608581           
         O8        1.0000    0.85540   0.83580   0.18900   Biso      1.000     O          -0.60858  
         O9        1.0000    0.82290   0.03220   0.66630   Biso      1.000     O          -0.541563           
         O10       1.0000    0.03220   0.66630   0.82290   Biso      1.000     O          -0.541563           
         O11       1.0000    0.57810   0.10550   0.31670   Biso      1.000     O          -0.544098           
         O12       1.0000    0.31670   0.57810   0.10550   Biso      1.000     O          -0.544098           
         O13       1.0000    0.17710   0.96780   0.33370   Biso      1.000     O          -0.541563           
         O14       1.0000    0.16420   0.81100   0.14460   Biso      1.000     O          -0.608581           
         O15       1.0000    0.10550   0.31670   0.57810   Biso      1.000     O          -0.544098           
         O16       1.0000    0.90760   0.13430   0.45140   Biso      1.000     O          -0.598375           
         O17       1.0000    0.96780   0.33370   0.17710   Biso      1.000     O          -0.541563           
         O18       1.0000    0.81100   0.14460   0.16420   Biso      1.000     O          -0.608581           
         O19       1.0000    0.13430   0.45140   0.90760   Biso      1.000     O          -0.598375           
         O20       1.0000    0.33370   0.17710   0.96780   Biso      1.000     O          -0.541563           
         O21       1.0000    0.14460   0.16420   0.81100   Biso      1.000     O          -0.60858  
         O22       1.0000    0.54860   0.09240   0.86570   Biso      1.000     O          -0.598376           
         O23       1.0000    0.45140   0.90760   0.13430   Biso      1.000     O          -0.598375           
         O24       1.0000    0.42190   0.89450   0.68330   Biso      1.000     O          -0.544098 