
##########################################################################
#               Crystallographic Information Format file
#               Produced by PyCifRW module
#
#  This is a CIF file.  CIF has been adopted by the International
#  Union of Crystallography as the standard for data archiving and
#  transmission.
#
#  For information on this file format, follow the CIF links at
#  http://www.iucr.org
##########################################################################

data_image0

_cell_length_a                          10.6901
_cell_length_b                          10.6901
_cell_length_c                          10.6901
_cell_angle_alpha                       105.942
_cell_angle_beta                        105.942
_cell_angle_gamma                       105.942
_symmetry_space_group_name_H-M          'P 1'
_symmetry_int_tables_number             1
loop_
  _symmetry_equiv_pos_as_xyz
         'x, y, z' 
loop_
  _atom_site_label
  _atom_site_occupancy
  _atom_site_fract_x
  _atom_site_fract_y
  _atom_site_fract_z
  _atom_site_thermal_displace_type
  _atom_site_B_iso_or_equiv
  _atom_site_type_symbol
  _atom_site_charge
         C1        1.0000    0.54750   0.82910   0.72330   Biso      1.000     C          -0.493937           
         C2        1.0000    0.45250   0.17090   0.27670   Biso      1.000     C          -0.493937           
         C3        1.0000    0.26500   0.56600   0.28240   Biso      1.000     C          0.678712  
         C4        1.0000    0.27430   0.48130   0.03800   Biso      1.000     C          0.6885899999999999  
         C5        1.0000    0.27670   0.45250   0.17090   Biso      1.000     C          -0.493936           
         C6        1.0000    0.28240   0.26500   0.56600   Biso      1.000     C          0.678713  
         C7        1.0000    0.03800   0.27430   0.48130   Biso      1.000     C          0.688591  
         C8        1.0000    0.17090   0.27670   0.45250   Biso      1.000     C          -0.493936           
         C9        1.0000    0.43400   0.71760   0.73500   Biso      1.000     C          0.678713  
         C10       1.0000    0.51870   0.96200   0.72570   Biso      1.000     C          0.688591  
         C11       1.0000    0.73500   0.43400   0.71760   Biso      1.000     C          0.678713  
         C12       1.0000    0.72570   0.51870   0.96200   Biso      1.000     C          0.688591  
         C13       1.0000    0.72330   0.54750   0.82910   Biso      1.000     C          -0.493936           
         C14       1.0000    0.71760   0.73500   0.43400   Biso      1.000     C          0.678713  
         C15       1.0000    0.96200   0.72570   0.51870   Biso      1.000     C          0.6885899999999999  
         C16       1.0000    0.82910   0.72330   0.54750   Biso      1.000     C          -0.493936           
         C17       1.0000    0.48130   0.03800   0.27430   Biso      1.000     C          0.688591  
         C18       1.0000    0.56600   0.28240   0.26500   Biso      1.000     C          0.678713  
         Cd1       1.0000    0.75065   0.48516   0.21557   Biso      1.000     Cd          1.0559209999999999  
         Cd2       1.0000    0.78443   0.24935   0.51484   Biso      1.000     Cd          1.0559209999999999  
         Cd3       1.0000    0.21557   0.75065   0.48516   Biso      1.000     Cd          1.0559209999999999  
         Cd4       1.0000    0.48516   0.21557   0.75065   Biso      1.000     Cd          1.0559209999999999  
         Cd5       1.0000    0.24935   0.51484   0.78443   Biso      1.000     Cd          1.0559209999999999  
         Cd6       1.0000    0.51484   0.78443   0.24935   Biso      1.000     Cd          1.0559209999999999  
         H1        1.0000    0.78910   0.63650   0.55970   Biso      1.000     H          0.18321400000000002           
         H2        1.0000    0.36480   0.14460   0.19960   Biso      1.000     H          0.17748   
         H3        1.0000    0.44030   0.21090   0.36350   Biso      1.000     H          0.18321500000000002           
         H4        1.0000    0.85540   0.80040   0.63520   Biso      1.000     H          0.17748   
         H5        1.0000    0.36350   0.44030   0.21090   Biso      1.000     H          0.18321400000000002           
         H6        1.0000    0.14460   0.19960   0.36480   Biso      1.000     H          0.17748   
         H7        1.0000    0.21090   0.36350   0.44030   Biso      1.000     H          0.18321400000000002           
         H8        1.0000    0.63520   0.85540   0.80040   Biso      1.000     H          0.17748   
         H9        1.0000    0.55970   0.78910   0.63650   Biso      1.000     H          0.18321500000000002           
         H10       1.0000    0.80040   0.63520   0.85540   Biso      1.000     H          0.17748   
         H11       1.0000    0.19960   0.36480   0.14460   Biso      1.000     H          0.17748   
         H12       1.0000    0.63650   0.55970   0.78910   Biso      1.000     H          0.18321400000000002           
         O1        1.0000    0.40740   0.95140   0.63430   Biso      1.000     O          -0.599521           
         O2        1.0000    0.46790   0.67720   0.83360   Biso      1.000     O          -0.543384           
         O3        1.0000    0.60530   0.07890   0.81650   Biso      1.000     O          -0.54032  
         O4        1.0000    0.64460   0.31070   0.66400   Biso      1.000     O          -0.606758           
         O5        1.0000    0.81650   0.60530   0.07890   Biso      1.000     O          -0.54032  
         O6        1.0000    0.83360   0.46790   0.67720   Biso      1.000     O          -0.543384           
         O7        1.0000    0.66400   0.64460   0.31070   Biso      1.000     O          -0.606758           
         O8        1.0000    0.31070   0.66400   0.64460   Biso      1.000     O          -0.606758           
         O9        1.0000    0.95140   0.63430   0.40740   Biso      1.000     O          -0.599521           
         O10       1.0000    0.63430   0.40740   0.95140   Biso      1.000     O          -0.599521           
         O11       1.0000    0.92110   0.18350   0.39470   Biso      1.000     O          -0.54032  
         O12       1.0000    0.39470   0.92110   0.18350   Biso      1.000     O          -0.54032  
         O13       1.0000    0.04860   0.36570   0.59260   Biso      1.000     O          -0.599521           
         O14       1.0000    0.33600   0.35540   0.68930   Biso      1.000     O          -0.606758           
         O15       1.0000    0.18350   0.39470   0.92110   Biso      1.000     O          -0.54032  
         O16       1.0000    0.16640   0.53210   0.32280   Biso      1.000     O          -0.543383           
         O17       1.0000    0.36570   0.59260   0.04860   Biso      1.000     O          -0.599521           
         O18       1.0000    0.35540   0.68930   0.33600   Biso      1.000     O          -0.606758           
         O19       1.0000    0.53210   0.32280   0.16640   Biso      1.000     O          -0.543384           
         O20       1.0000    0.59260   0.04860   0.36570   Biso      1.000     O          -0.599521           
         O21       1.0000    0.68930   0.33600   0.35540   Biso      1.000     O          -0.606758           
         O22       1.0000    0.67720   0.83360   0.46790   Biso      1.000     O          -0.543384           
         O23       1.0000    0.32280   0.16640   0.53210   Biso      1.000     O          -0.543384           
         O24       1.0000    0.07890   0.81650   0.60530   Biso      1.000     O          -0.54032 