
##########################################################################
#               Crystallographic Information Format file
#               Produced by PyCifRW module
#
#  This is a CIF file.  CIF has been adopted by the International
#  Union of Crystallography as the standard for data archiving and
#  transmission.
#
#  For information on this file format, follow the CIF links at
#  http://www.iucr.org
##########################################################################

data_image0

_cell_length_a                          9.869
_cell_length_b                          11.082
_cell_length_c                          19.785
_cell_angle_alpha                       90
_cell_angle_beta                        90
_cell_angle_gamma                       111.059
_symmetry_space_group_name_H-M          'P 1'
_symmetry_int_tables_number             1
loop_
  _symmetry_equiv_pos_as_xyz
         'x, y, z' 
loop_
  _atom_site_label
  _atom_site_occupancy
  _atom_site_fract_x
  _atom_site_fract_y
  _atom_site_fract_z
  _atom_site_thermal_displace_type
  _atom_site_B_iso_or_equiv
  _atom_site_type_symbol
  _atom_site_charge
         C1        1.0000    0.40000   0.89220   0.96692   Biso      1.000     C          -0.211582           
         C2        1.0000    0.06960   0.74860   0.55801   Biso      1.000     C          -0.161608           
         C3        1.0000    0.03680   0.62440   0.52799   Biso      1.000     C          0.080355  
         C4        1.0000    0.93570   0.51480   0.56146   Biso      1.000     C          0.087943  
         C5        1.0000    0.87260   0.53520   0.62342   Biso      1.000     C          -0.194947           
         C6        1.0000    0.90420   0.65470   0.65055   Biso      1.000     C          -0.009706           
         C7        1.0000    0.82230   0.66450   0.71298   Biso      1.000     C          0.58913   
         C8        1.0000    0.23520   0.28160   0.55734   Biso      1.000     C          0.098683  
         C9        1.0000    0.31870   0.36480   0.50863   Biso      1.000     C          -0.171065           
         C10       1.0000    0.00750   0.76510   0.61698   Biso      1.000     C          -0.03489  
         C11       1.0000    0.45280   0.45550   0.52567   Biso      1.000     C          0.11384   
         C12       1.0000    0.40470   0.37050   0.63803   Biso      1.000     C          0.121612  
         C13       1.0000    0.55480   0.39640   0.85104   Biso      1.000     C          0.578227  
         C14       1.0000    0.50750   0.26510   0.88302   Biso      1.000     C          -0.034901           
         C15       1.0000    0.56960   0.24860   0.94199   Biso      1.000     C          -0.161597           
         C16       1.0000    0.53680   0.12440   0.97201   Biso      1.000     C          0.080354  
         C17       1.0000    0.43570   0.01480   0.93854   Biso      1.000     C          0.087942  
         C18       1.0000    0.40420   0.15470   0.84945   Biso      1.000     C          -0.009714           
         C19       1.0000    0.32230   0.16450   0.78702   Biso      1.000     C          0.589131  
         C20       1.0000    0.49220   0.45860   0.59267   Biso      1.000     C          -0.167912           
         C21       1.0000    0.26480   0.21840   0.05734   Biso      1.000     C          0.098683  
         C22       1.0000    0.90000   0.39220   0.53308   Biso      1.000     C          -0.211581           
         C23       1.0000    0.90470   0.87050   0.86197   Biso      1.000     C          0.121612  
         C24       1.0000    0.76480   0.71840   0.44266   Biso      1.000     C          0.098683  
         C25       1.0000    0.68130   0.63520   0.49137   Biso      1.000     C          -0.171065           
         C26       1.0000    0.54720   0.54450   0.47433   Biso      1.000     C          0.11384   
         C27       1.0000    0.50780   0.54140   0.40733   Biso      1.000     C          -0.167914           
         C28       1.0000    0.59530   0.62950   0.36197   Biso      1.000     C          0.121614  
         C29       1.0000    0.44520   0.60360   0.14896   Biso      1.000     C          0.578227  
         C30       1.0000    0.60000   0.10780   0.03308   Biso      1.000     C          -0.211581           
         C31       1.0000    0.49250   0.73490   0.11698   Biso      1.000     C          -0.034902           
         C32       1.0000    0.05480   0.89640   0.64896   Biso      1.000     C          0.578226  
         C33       1.0000    0.43040   0.75140   0.05801   Biso      1.000     C          -0.161596           
         C34       1.0000    0.56430   0.98520   0.06146   Biso      1.000     C          0.087943  
         C35       1.0000    0.62740   0.96480   0.12342   Biso      1.000     C          -0.194947           
         C36       1.0000    0.59580   0.84530   0.15055   Biso      1.000     C          -0.009705           
         C37       1.0000    0.67770   0.83550   0.21298   Biso      1.000     C          0.58913   
         C38       1.0000    0.73520   0.78160   0.94266   Biso      1.000     C          0.098683  
         C39       1.0000    0.81870   0.86480   0.99137   Biso      1.000     C          -0.171065           
         C40       1.0000    0.95280   0.95550   0.97433   Biso      1.000     C          0.11384   
         C41       1.0000    0.99220   0.95860   0.90733   Biso      1.000     C          -0.167912           
         C42       1.0000    0.46320   0.87560   0.02799   Biso      1.000     C          0.080354  
         C43       1.0000    0.18130   0.13520   0.00863   Biso      1.000     C          -0.171065           
         C44       1.0000    0.37260   0.03520   0.87658   Biso      1.000     C          -0.194937           
         C45       1.0000    0.00780   0.04140   0.09267   Biso      1.000     C          -0.167917           
         C46       1.0000    0.09580   0.34530   0.34945   Biso      1.000     C          -0.009715           
         C47       1.0000    0.12740   0.46480   0.37658   Biso      1.000     C          -0.194937           
         C48       1.0000    0.06430   0.48520   0.43854   Biso      1.000     C          0.087942  
         C49       1.0000    0.96320   0.37560   0.47201   Biso      1.000     C          0.080355  
         C50       1.0000    0.93040   0.25140   0.44199   Biso      1.000     C          -0.161608           
         C51       1.0000    0.17770   0.33550   0.28702   Biso      1.000     C          0.589131  
         C52       1.0000    0.04720   0.04450   0.02567   Biso      1.000     C          0.113843  
         C53       1.0000    0.10000   0.60780   0.46692   Biso      1.000     C          -0.211581           
         C54       1.0000    0.94520   0.10360   0.35104   Biso      1.000     C          0.578226  
         C55       1.0000    0.09530   0.12950   0.13803   Biso      1.000     C          0.121614  
         C56       1.0000    0.99250   0.23490   0.38302   Biso      1.000     C          -0.034889           
         H1        1.0000    0.28500   0.35990   0.46450   Biso      1.000     H          0.124467  
         H2        1.0000    0.57870   0.52080   0.60740   Biso      1.000     H          0.12827   
         H3        1.0000    0.43620   0.37280   0.68250   Biso      1.000     H          0.107937  
         H4        1.0000    0.33380   0.82090   0.94520   Biso      1.000     H          0.133948  
         H5        1.0000    0.63540   0.32060   0.96340   Biso      1.000     H          0.133861  
         H6        1.0000    0.30770   0.96420   0.85410   Biso      1.000     H          0.134939  
         H7        1.0000    0.19230   0.53580   0.35410   Biso      1.000     H          0.134939  
         H8        1.0000    0.92130   0.97920   0.10740   Biso      1.000     H          0.12827   
         H9        1.0000    0.06380   0.12720   0.18250   Biso      1.000     H          0.107937  
         H10       1.0000    0.16620   0.67910   0.44520   Biso      1.000     H          0.133948  
         H11       1.0000    0.14510   0.22210   0.54480   Biso      1.000     H          0.096214  
         H12       1.0000    0.86460   0.17940   0.46340   Biso      1.000     H          0.133862  
         H13       1.0000    0.35490   0.27790   0.04480   Biso      1.000     H          0.096214  
         H14       1.0000    0.21500   0.14010   0.96450   Biso      1.000     H          0.124467  
         H15       1.0000    0.80770   0.46420   0.64590   Biso      1.000     H          0.134939  
         H16       1.0000    0.83380   0.32090   0.55480   Biso      1.000     H          0.133948  
         H17       1.0000    0.13540   0.82060   0.53660   Biso      1.000     H          0.133862  
         H18       1.0000    0.85490   0.77790   0.45520   Biso      1.000     H          0.096214  
         H19       1.0000    0.71500   0.64010   0.53550   Biso      1.000     H          0.124467  
         H20       1.0000    0.56380   0.62720   0.31750   Biso      1.000     H          0.107937  
         H21       1.0000    0.66620   0.17910   0.05480   Biso      1.000     H          0.133948  
         H22       1.0000    0.42130   0.47920   0.39260   Biso      1.000     H          0.12827   
         H23       1.0000    0.69230   0.03580   0.14590   Biso      1.000     H          0.134939  
         H24       1.0000    0.64510   0.72210   0.95520   Biso      1.000     H          0.096214  
         H25       1.0000    0.78500   0.85990   0.03550   Biso      1.000     H          0.124467  
         H26       1.0000    0.07870   0.02080   0.89260   Biso      1.000     H          0.12827   
         H27       1.0000    0.93620   0.87280   0.81750   Biso      1.000     H          0.107937  
         H28       1.0000    0.36460   0.67940   0.03660   Biso      1.000     H          0.133861  
         N1        1.0000    0.27760   0.28260   0.62125   Biso      1.000     N          -0.214488           
         N2        1.0000    0.72240   0.71740   0.37875   Biso      1.000     N          -0.214488           
         N3        1.0000    0.22240   0.21740   0.12125   Biso      1.000     N          -0.214488           
         N4        1.0000    0.77760   0.78260   0.87875   Biso      1.000     N          -0.214488           
         O1        1.0000    0.61410   0.49430   0.88875   Biso      1.000     O          -0.551648           
         O2        1.0000    0.84260   0.61050   0.76620   Biso      1.000     O          -0.541776           
         O3        1.0000    0.72920   0.71570   0.70931   Biso      1.000     O          -0.557135           
         O4        1.0000    0.04040   0.90640   0.71104   Biso      1.000     O          -0.532203           
         O5        1.0000    0.65740   0.88950   0.26620   Biso      1.000     O          -0.541776           
         O6        1.0000    0.11410   0.99430   0.61125   Biso      1.000     O          -0.551648           
         O7        1.0000    0.54040   0.40640   0.78896   Biso      1.000     O          -0.532203           
         O8        1.0000    0.77080   0.78430   0.20931   Biso      1.000     O          -0.557135           
         O9        1.0000    0.22920   0.21570   0.79069   Biso      1.000     O          -0.557135           
         O10       1.0000    0.38590   0.50570   0.11125   Biso      1.000     O          -0.551648           
         O11       1.0000    0.88590   0.00570   0.38875   Biso      1.000     O          -0.551648           
         O12       1.0000    0.95960   0.09360   0.28896   Biso      1.000     O          -0.532203           
         O13       1.0000    0.27080   0.28430   0.29069   Biso      1.000     O          -0.557135           
         O14       1.0000    0.15740   0.38950   0.23380   Biso      1.000     O          -0.541776           
         O15       1.0000    0.45960   0.59360   0.21104   Biso      1.000     O          -0.532203           
         O16       1.0000    0.34260   0.11050   0.73380   Biso      1.000     O          -0.541776           
         Zn1       1.0000    0.83681   0.86681   0.31529   Biso      1.000     Zn          0.819533  
         Zn2       1.0000    0.66319   0.63319   0.81529   Biso      1.000     Zn          0.819533  
         Zn3       1.0000    0.16319   0.13319   0.68471   Biso      1.000     Zn          0.819533  
         Zn4       1.0000    0.33681   0.36681   0.18471   Biso      1.000     Zn          0.819533 