
##########################################################################
#               Crystallographic Information Format file
#               Produced by PyCifRW module
#
#  This is a CIF file.  CIF has been adopted by the International
#  Union of Crystallography as the standard for data archiving and
#  transmission.
#
#  For information on this file format, follow the CIF links at
#  http://www.iucr.org
##########################################################################

data_image0

_cell_length_a                          10.101
_cell_length_b                          10.2184
_cell_length_c                          21.058
_cell_angle_alpha                       90
_cell_angle_beta                        90
_cell_angle_gamma                       106.098
_symmetry_space_group_name_H-M          'P 1'
_symmetry_int_tables_number             1
loop_
  _symmetry_equiv_pos_as_xyz
         'x, y, z' 
loop_
  _atom_site_label
  _atom_site_occupancy
  _atom_site_fract_x
  _atom_site_fract_y
  _atom_site_fract_z
  _atom_site_thermal_displace_type
  _atom_site_B_iso_or_equiv
  _atom_site_type_symbol
  _atom_site_charge
         C1        1.0000    0.69530   0.26500   0.59148   Biso      1.000     C          0.10629000000000001           
         C2        1.0000    0.84590   0.03790   0.89224   Biso      1.000     C          -0.170532           
         C3        1.0000    0.92330   0.01620   0.94619   Biso      1.000     C          0.078571  
         C4        1.0000    0.00790   0.13420   0.97831   Biso      1.000     C          0.088272  
         C5        1.0000    0.01140   0.26500   0.95541   Biso      1.000     C          -0.180588           
         C6        1.0000    0.93750   0.28290   0.90309   Biso      1.000     C          -0.009337999999999999         
         C7        1.0000    0.96170   0.42460   0.87736   Biso      1.000     C          0.6042529999999999  
         C8        1.0000    0.85490   0.32830   0.67223   Biso      1.000     C          0.114695  
         C9        1.0000    0.94800   0.41200   0.63151   Biso      1.000     C          -0.183266           
         C10       1.0000    0.85110   0.16420   0.87135   Biso      1.000     C          -0.038175           
         C11       1.0000    0.91290   0.42010   0.56884   Biso      1.000     C          0.217354  
         C12       1.0000    0.25940   0.68340   0.68229   Biso      1.000     C          0.564822  
         C13       1.0000    0.58350   0.61420   0.46806   Biso      1.000     C          -0.20646199999999998          
         C14       1.0000    0.35110   0.66420   0.62865   Biso      1.000     C          -0.038193           
         C15       1.0000    0.34590   0.53790   0.60776   Biso      1.000     C          -0.170513           
         C16       1.0000    0.50790   0.63420   0.52169   Biso      1.000     C          0.088272  
         C17       1.0000    0.51140   0.76500   0.54459   Biso      1.000     C          -0.180588           
         C18       1.0000    0.43750   0.78290   0.59691   Biso      1.000     C          -0.009336           
         C19       1.0000    0.46170   0.92460   0.62264   Biso      1.000     C          0.6042529999999999  
         C20       1.0000    0.78400   0.34480   0.54821   Biso      1.000     C          -0.183179           
         C21       1.0000    0.64510   0.17170   0.17223   Biso      1.000     C          0.114695  
         C22       1.0000    0.08350   0.11420   0.03194   Biso      1.000     C          -0.20646199999999998          
         C23       1.0000    0.19530   0.76500   0.90852   Biso      1.000     C          0.10628900000000001           
         C24       1.0000    0.14510   0.67170   0.32777   Biso      1.000     C          0.114696  
         C25       1.0000    0.05200   0.58800   0.36849   Biso      1.000     C          -0.18326800000000001          
         C26       1.0000    0.08710   0.57990   0.43116   Biso      1.000     C          0.21734699999999998           
         C27       1.0000    0.21600   0.65520   0.45179   Biso      1.000     C          -0.183178           
         C28       1.0000    0.30470   0.73500   0.40852   Biso      1.000     C          0.10629200000000001           
         C29       1.0000    0.74060   0.31660   0.31771   Biso      1.000     C          0.564822  
         C30       1.0000    0.41650   0.38580   0.53194   Biso      1.000     C          -0.20646199999999998          
         C31       1.0000    0.64890   0.33580   0.37135   Biso      1.000     C          -0.038194           
         C32       1.0000    0.75940   0.18340   0.81771   Biso      1.000     C          0.56482   
         C33       1.0000    0.65410   0.46210   0.39224   Biso      1.000     C          -0.170514           
         C34       1.0000    0.49210   0.36580   0.47831   Biso      1.000     C          0.088273  
         C35       1.0000    0.48860   0.23500   0.45541   Biso      1.000     C          -0.180588           
         C36       1.0000    0.56250   0.21710   0.40309   Biso      1.000     C          -0.009336           
         C37       1.0000    0.53830   0.07540   0.37736   Biso      1.000     C          0.6042529999999999  
         C38       1.0000    0.35490   0.82830   0.82777   Biso      1.000     C          0.114696  
         C39       1.0000    0.44800   0.91200   0.86849   Biso      1.000     C          -0.18326800000000001          
         C40       1.0000    0.41290   0.92010   0.93116   Biso      1.000     C          0.217346  
         C41       1.0000    0.28400   0.84480   0.95179   Biso      1.000     C          -0.183176           
         C42       1.0000    0.57670   0.48380   0.44619   Biso      1.000     C          0.078571  
         C43       1.0000    0.55200   0.08800   0.13151   Biso      1.000     C          -0.183266           
         C44       1.0000    0.42330   0.51620   0.55381   Biso      1.000     C          0.078571  
         C45       1.0000    0.71600   0.15520   0.04821   Biso      1.000     C          -0.18318099999999998          
         C46       1.0000    0.58710   0.07990   0.06884   Biso      1.000     C          0.21735500000000002           
         C47       1.0000    0.06250   0.71710   0.09691   Biso      1.000     C          -0.009343           
         C48       1.0000    0.98860   0.73500   0.04459   Biso      1.000     C          -0.180583           
         C49       1.0000    0.99210   0.86580   0.02169   Biso      1.000     C          0.088271  
         C50       1.0000    0.07670   0.98380   0.05381   Biso      1.000     C          0.078572  
         C51       1.0000    0.03830   0.57540   0.12264   Biso      1.000     C          0.604254  
         C52       1.0000    0.15410   0.96210   0.10776   Biso      1.000     C          -0.170531           
         C53       1.0000    0.14890   0.83580   0.12865   Biso      1.000     C          -0.038174           
         C54       1.0000    0.91650   0.88580   0.96806   Biso      1.000     C          -0.206461           
         C55       1.0000    0.24060   0.81660   0.18229   Biso      1.000     C          0.56482   
         C56       1.0000    0.80470   0.23500   0.09148   Biso      1.000     C          0.10629200000000001           
         H1        1.0000    0.75790   0.34810   0.50600   Biso      1.000     H          0.130867  
         H2        1.0000    0.60830   0.21540   0.57780   Biso      1.000     H          0.100152  
         H3        1.0000    0.63890   0.68940   0.44690   Biso      1.000     H          0.137824  
         H4        1.0000    0.29040   0.46290   0.62910   Biso      1.000     H          0.130627  
         H5        1.0000    0.56530   0.84120   0.52360   Biso      1.000     H          0.138836  
         H6        1.0000    0.46640   0.03760   0.14630   Biso      1.000     H          0.139349  
         H7        1.0000    0.93470   0.65880   0.02360   Biso      1.000     H          0.138836  
         H8        1.0000    0.74210   0.15190   0.00600   Biso      1.000     H          0.130867  
         H9        1.0000    0.89170   0.28460   0.07780   Biso      1.000     H          0.100152  
         H10       1.0000    0.86110   0.81060   0.94690   Biso      1.000     H          0.137824  
         H11       1.0000    0.87990   0.32180   0.71440   Biso      1.000     H          0.106144  
         H12       1.0000    0.20960   0.03710   0.12910   Biso      1.000     H          0.130628  
         H13       1.0000    0.62010   0.17820   0.21440   Biso      1.000     H          0.106144  
         H14       1.0000    0.06530   0.34120   0.97640   Biso      1.000     H          0.138836  
         H15       1.0000    0.03360   0.46240   0.64630   Biso      1.000     H          0.139349  
         H16       1.0000    0.13890   0.18940   0.05310   Biso      1.000     H          0.137824  
         H17       1.0000    0.79040   0.96290   0.87090   Biso      1.000     H          0.130628  
         H18       1.0000    0.96640   0.53760   0.35370   Biso      1.000     H          0.139348  
         H19       1.0000    0.24210   0.65190   0.49400   Biso      1.000     H          0.130868  
         H20       1.0000    0.39170   0.78460   0.42220   Biso      1.000     H          0.100152  
         H21       1.0000    0.36110   0.31060   0.55310   Biso      1.000     H          0.137824  
         H22       1.0000    0.12010   0.67820   0.28560   Biso      1.000     H          0.106144  
         H23       1.0000    0.43470   0.15880   0.47640   Biso      1.000     H          0.138836  
         H24       1.0000    0.37990   0.82180   0.78560   Biso      1.000     H          0.106144  
         H25       1.0000    0.53360   0.96240   0.85370   Biso      1.000     H          0.139348  
         H26       1.0000    0.25790   0.84810   0.99400   Biso      1.000     H          0.130868  
         H27       1.0000    0.10830   0.71540   0.92220   Biso      1.000     H          0.100152  
         H28       1.0000    0.70960   0.53710   0.37090   Biso      1.000     H          0.130627  
         N1        1.0000    0.22920   0.75590   0.84730   Biso      1.000     N          -0.225388           
         N2        1.0000    0.01380   0.50870   0.52861   Biso      1.000     N          -0.094215           
         N3        1.0000    0.72920   0.25590   0.65270   Biso      1.000     N          -0.225388           
         N4        1.0000    0.48620   0.99130   0.02861   Biso      1.000     N          -0.094215           
         N5        1.0000    0.27080   0.74410   0.34730   Biso      1.000     N          -0.225388           
         N6        1.0000    0.98620   0.49130   0.47139   Biso      1.000     N          -0.094124           
         N7        1.0000    0.51380   0.00870   0.97139   Biso      1.000     N          -0.094124           
         N8        1.0000    0.77080   0.24410   0.15270   Biso      1.000     N          -0.225388           
         O1        1.0000    0.02410   0.44190   0.82286   Biso      1.000     O          -0.5647310000000001           
         O2        1.0000    0.21770   0.58200   0.72017   Biso      1.000     O          -0.552415           
         O3        1.0000    0.93210   0.51500   0.90812   Biso      1.000     O          -0.550543           
         O4        1.0000    0.71770   0.08200   0.77983   Biso      1.000     O          -0.5524140000000001           
         O5        1.0000    0.47590   0.05810   0.32286   Biso      1.000     O          -0.5647300000000001           
         O6        1.0000    0.22470   0.78940   0.68679   Biso      1.000     O          -0.548231           
         O7        1.0000    0.72470   0.28940   0.81321   Biso      1.000     O          -0.548231           
         O8        1.0000    0.56790   0.98500   0.40812   Biso      1.000     O          -0.550543           
         O9        1.0000    0.43210   0.01500   0.59188   Biso      1.000     O          -0.550543           
         O10       1.0000    0.78230   0.41800   0.27983   Biso      1.000     O          -0.552415           
         O11       1.0000    0.28230   0.91800   0.22017   Biso      1.000     O          -0.552415           
         O12       1.0000    0.27530   0.71060   0.18679   Biso      1.000     O          -0.548231           
         O13       1.0000    0.06790   0.48500   0.09188   Biso      1.000     O          -0.550543           
         O14       1.0000    0.97590   0.55810   0.17714   Biso      1.000     O          -0.5647310000000001           
         O15       1.0000    0.77530   0.21060   0.31321   Biso      1.000     O          -0.548231           
         O16       1.0000    0.52410   0.94190   0.67714   Biso      1.000     O          -0.5647300000000001           
         Zn1       1.0000    0.39952   0.87689   0.28735   Biso      1.000     Zn          0.8489610000000001  
         Zn2       1.0000    0.10048   0.62311   0.78735   Biso      1.000     Zn          0.8489620000000001  
         Zn3       1.0000    0.60048   0.12311   0.71265   Biso      1.000     Zn          0.8489620000000001  
         Zn4       1.0000    0.89952   0.37689   0.21265   Biso      1.000     Zn          0.8489620000000001 