
##########################################################################
#               Crystallographic Information Format file
#               Produced by PyCifRW module
#
#  This is a CIF file.  CIF has been adopted by the International
#  Union of Crystallography as the standard for data archiving and
#  transmission.
#
#  For information on this file format, follow the CIF links at
#  http://www.iucr.org
##########################################################################

data_image0

_cell_length_a                          10.9357
_cell_length_b                          10.9357
_cell_length_c                          12.4549
_cell_angle_alpha                       101.572
_cell_angle_beta                        101.572
_cell_angle_gamma                       99.2271
_symmetry_space_group_name_H-M          'P 1'
_symmetry_int_tables_number             1
loop_
  _symmetry_equiv_pos_as_xyz
         'x, y, z' 
loop_
  _atom_site_label
  _atom_site_occupancy
  _atom_site_fract_x
  _atom_site_fract_y
  _atom_site_fract_z
  _atom_site_thermal_displace_type
  _atom_site_B_iso_or_equiv
  _atom_site_type_symbol
  _atom_site_charge
         C1        1.0000    0.29450   0.54850   0.07580   Biso      1.000     C          -0.6474489999999999           
         C2        1.0000    0.34323   0.29797   0.84650   Biso      1.000     C          -0.10704200000000001          
         C3        1.0000    0.30030   0.00630   0.26950   Biso      1.000     C          -0.468217           
         C4        1.0000    0.34786   0.17394   0.85500   Biso      1.000     C          -0.120868           
         C5        1.0000    0.26720   0.09880   0.65480   Biso      1.000     C          -0.119048           
         C6        1.0000    0.69410   0.31110   0.89460   Biso      1.000     C          0.264559  
         C7        1.0000    0.70550   0.45150   0.92420   Biso      1.000     C          -0.6474489999999999           
         C8        1.0000    0.69970   0.99370   0.73050   Biso      1.000     C          -0.468217           
         C9        1.0000    0.69110   0.11250   0.80770   Biso      1.000     C          0.248453  
         C10       1.0000    0.65214   0.82606   0.14500   Biso      1.000     C          -0.12087  
         C11       1.0000    0.65677   0.70203   0.15350   Biso      1.000     C          -0.10704000000000001          
         C12       1.0000    0.70842   0.54218   0.26450   Biso      1.000     C          0.581767  
         C13       1.0000    0.70076   0.67704   0.25740   Biso      1.000     C          -0.032639           
         C14       1.0000    0.73830   0.77690   0.35270   Biso      1.000     C          -0.111114           
         C15       1.0000    0.73280   0.90120   0.34520   Biso      1.000     C          -0.119046           
         C16       1.0000    0.68919   0.92601   0.24090   Biso      1.000     C          -0.017592           
         C17       1.0000    0.29158   0.45782   0.73550   Biso      1.000     C          0.5817680000000001  
         C18       1.0000    0.68196   0.06050   0.23230   Biso      1.000     C          0.592711  
         C19       1.0000    0.29924   0.32296   0.74260   Biso      1.000     C          -0.032639           
         C20       1.0000    0.23513   0.71751   0.29549   Biso      1.000     C          -0.168786           
         C21       1.0000    0.31081   0.07399   0.75910   Biso      1.000     C          -0.017592           
         C22       1.0000    0.31804   0.93950   0.76770   Biso      1.000     C          0.592711  
         C23       1.0000    0.28249   0.76487   0.20451   Biso      1.000     C          -0.168786           
         C24       1.0000    0.31110   0.69410   0.39460   Biso      1.000     C          0.264556  
         C25       1.0000    0.45150   0.70550   0.42420   Biso      1.000     C          -0.6474489999999999           
         C26       1.0000    0.99370   0.69970   0.23050   Biso      1.000     C          -0.468218           
         C27       1.0000    0.11250   0.69110   0.30770   Biso      1.000     C          0.24846100000000002           
         C28       1.0000    0.82606   0.65214   0.64500   Biso      1.000     C          -0.120871           
         C29       1.0000    0.70203   0.65677   0.65350   Biso      1.000     C          -0.10704000000000001          
         C30       1.0000    0.54218   0.70842   0.76450   Biso      1.000     C          0.581767  
         C31       1.0000    0.67704   0.70076   0.75740   Biso      1.000     C          -0.032639           
         C32       1.0000    0.77690   0.73830   0.85270   Biso      1.000     C          -0.111114           
         C33       1.0000    0.90120   0.73280   0.84520   Biso      1.000     C          -0.119046           
         C34       1.0000    0.92601   0.68919   0.74090   Biso      1.000     C          -0.017592           
         C35       1.0000    0.06050   0.68196   0.73230   Biso      1.000     C          0.592711  
         C36       1.0000    0.30590   0.68890   0.10540   Biso      1.000     C          0.26455500000000004           
         C37       1.0000    0.71751   0.23513   0.79549   Biso      1.000     C          -0.168781           
         C38       1.0000    0.26170   0.22310   0.64730   Biso      1.000     C          -0.11111199999999999          
         C39       1.0000    0.54850   0.29450   0.57580   Biso      1.000     C          -0.6474489999999999           
         C40       1.0000    0.68890   0.30590   0.60540   Biso      1.000     C          0.264558  
         C41       1.0000    0.30890   0.88750   0.19230   Biso      1.000     C          0.24846100000000002           
         C42       1.0000    0.93950   0.31804   0.26770   Biso      1.000     C          0.5927100000000001  
         C43       1.0000    0.07399   0.31081   0.25910   Biso      1.000     C          -0.017592           
         C44       1.0000    0.09880   0.26720   0.15480   Biso      1.000     C          -0.119048           
         C45       1.0000    0.22310   0.26170   0.14730   Biso      1.000     C          -0.11111300000000002          
         C46       1.0000    0.76487   0.28249   0.70451   Biso      1.000     C          -0.168787           
         C47       1.0000    0.45782   0.29158   0.23550   Biso      1.000     C          0.581767  
         C48       1.0000    0.29797   0.34323   0.34650   Biso      1.000     C          -0.10704200000000001          
         C49       1.0000    0.17394   0.34786   0.35500   Biso      1.000     C          -0.120868           
         C50       1.0000    0.88750   0.30890   0.69230   Biso      1.000     C          0.24845799999999998           
         C51       1.0000    0.00630   0.30030   0.76950   Biso      1.000     C          -0.468218           
         C52       1.0000    0.32296   0.29924   0.24260   Biso      1.000     C          -0.032639           
         H1        1.0000    0.76300   0.94700   0.77400   Biso      1.000     H          0.149669  
         H2        1.0000    0.25320   0.51480   0.11800   Biso      1.000     H          0.203024  
         H3        1.0000    0.36930   0.53130   0.08600   Biso      1.000     H          0.21631799999999998           
         H4        1.0000    0.35970   0.94630   0.07710   Biso      1.000     H          0.33823600000000004           
         H5        1.0000    0.24480   0.03720   0.58800   Biso      1.000     H          0.119992  
         H6        1.0000    0.22310   0.23890   0.57700   Biso      1.000     H          0.11255899999999999           
         H7        1.0000    0.37470   0.36530   0.91100   Biso      1.000     H          0.120296  
         H8        1.0000    0.37580   0.15860   0.92200   Biso      1.000     H          0.11704200000000001           
         H9        1.0000    0.74590   0.48210   0.99400   Biso      1.000     H          0.212389  
         H10       1.0000    0.73300   0.01700   0.66200   Biso      1.000     H          0.155931  
         H11       1.0000    0.53130   0.36930   0.58600   Biso      1.000     H          0.21631799999999998           
         H12       1.0000    0.15860   0.37580   0.42200   Biso      1.000     H          0.11704200000000001           
         H13       1.0000    0.36530   0.37470   0.41100   Biso      1.000     H          0.120297  
         H14       1.0000    0.23890   0.22310   0.07700   Biso      1.000     H          0.11256   
         H15       1.0000    0.03720   0.24480   0.08800   Biso      1.000     H          0.119993  
         H16       1.0000    0.94630   0.35970   0.57710   Biso      1.000     H          0.338235  
         H17       1.0000    0.25410   0.51790   0.00600   Biso      1.000     H          0.21238800000000002           
         H18       1.0000    0.51480   0.25320   0.61800   Biso      1.000     H          0.203024  
         H19       1.0000    0.51790   0.25410   0.50600   Biso      1.000     H          0.212389  
         H20       1.0000    0.05300   0.23700   0.72600   Biso      1.000     H          0.149669  
         H21       1.0000    0.98300   0.26700   0.83800   Biso      1.000     H          0.155931  
         H22       1.0000    0.06700   0.39100   0.79900   Biso      1.000     H          0.16047899999999998           
         H23       1.0000    0.60900   0.93300   0.70100   Biso      1.000     H          0.16047899999999998           
         H24       1.0000    0.23700   0.05300   0.22600   Biso      1.000     H          0.149669  
         H25       1.0000    0.05370   0.64030   0.42290   Biso      1.000     H          0.338237  
         H26       1.0000    0.39100   0.06700   0.29900   Biso      1.000     H          0.16047899999999998           
         H27       1.0000    0.75520   0.96280   0.41200   Biso      1.000     H          0.119992  
         H28       1.0000    0.64030   0.05370   0.92290   Biso      1.000     H          0.33823400000000003           
         H29       1.0000    0.63070   0.46870   0.91400   Biso      1.000     H          0.21631799999999998           
         H30       1.0000    0.62420   0.84140   0.07800   Biso      1.000     H          0.11704200000000001           
         H31       1.0000    0.26700   0.98300   0.33800   Biso      1.000     H          0.155931  
         H32       1.0000    0.74680   0.48520   0.88200   Biso      1.000     H          0.203024  
         H33       1.0000    0.77690   0.76110   0.42300   Biso      1.000     H          0.11256   
         H34       1.0000    0.01700   0.73300   0.16200   Biso      1.000     H          0.155931  
         H35       1.0000    0.93300   0.60900   0.20100   Biso      1.000     H          0.16047899999999998           
         H36       1.0000    0.48210   0.74590   0.49400   Biso      1.000     H          0.21238800000000002           
         H37       1.0000    0.48520   0.74680   0.38200   Biso      1.000     H          0.203024  
         H38       1.0000    0.46870   0.63070   0.41400   Biso      1.000     H          0.21631799999999998           
         H39       1.0000    0.96280   0.75520   0.91200   Biso      1.000     H          0.119992  
         H40       1.0000    0.76110   0.77690   0.92300   Biso      1.000     H          0.11256   
         H41       1.0000    0.63470   0.62530   0.58900   Biso      1.000     H          0.120296  
         H42       1.0000    0.84140   0.62420   0.57800   Biso      1.000     H          0.11704200000000001           
         H43       1.0000    0.94700   0.76300   0.27400   Biso      1.000     H          0.149669  
         H44       1.0000    0.62530   0.63470   0.08900   Biso      1.000     H          0.120296  
         N1        1.0000    0.76970   0.33712   0.54133   Biso      1.000     N          -0.213455           
         N2        1.0000    0.66288   0.23030   0.95867   Biso      1.000     N          -0.213457           
         N3        1.0000    0.11280   0.65880   0.40240   Biso      1.000     N          -0.217858           
         N4        1.0000    0.34120   0.88720   0.09760   Biso      1.000     N          -0.217858           
         N5        1.0000    0.33712   0.76970   0.04133   Biso      1.000     N          -0.21342399999999997          
         N6        1.0000    0.23030   0.66288   0.45867   Biso      1.000     N          -0.21342399999999997          
         N7        1.0000    0.65880   0.11280   0.90240   Biso      1.000     N          -0.217824           
         N8        1.0000    0.88720   0.34120   0.59760   Biso      1.000     N          -0.21782600000000002          
         O1        1.0000    0.74975   0.52481   0.36170   Biso      1.000     O          -0.54619  
         O2        1.0000    0.07761   0.64329   0.63435   Biso      1.000     O          -0.5528489999999999           
         O3        1.0000    0.45766   0.67578   0.67458   Biso      1.000     O          -0.555814           
         O4        1.0000    0.28788   0.85424   0.67847   Biso      1.000     O          -0.570458           
         O5        1.0000    0.35671   0.92239   0.86565   Biso      1.000     O          -0.5528489999999999           
         O6        1.0000    0.14576   0.71212   0.82153   Biso      1.000     O          -0.570458           
         O7        1.0000    0.52481   0.74975   0.86170   Biso      1.000     O          -0.54619  
         O8        1.0000    0.25025   0.47519   0.63830   Biso      1.000     O          -0.546191           
         O9        1.0000    0.32422   0.54234   0.82542   Biso      1.000     O          -0.555814           
         O10       1.0000    0.67578   0.45766   0.17458   Biso      1.000     O          -0.555814           
         O11       1.0000    0.64329   0.07761   0.13435   Biso      1.000     O          -0.5528489999999999           
         O12       1.0000    0.71212   0.14576   0.32153   Biso      1.000     O          -0.570458           
         O13       1.0000    0.47519   0.25025   0.13830   Biso      1.000     O          -0.546191           
         O14       1.0000    0.54234   0.32422   0.32542   Biso      1.000     O          -0.555814           
         O15       1.0000    0.92239   0.35671   0.36565   Biso      1.000     O          -0.5528489999999999           
         O16       1.0000    0.85424   0.28788   0.17847   Biso      1.000     O          -0.570458           
         Zn1       1.0000    0.26396   0.65919   0.62370   Biso      1.000     Zn          0.855917  
         Zn2       1.0000    0.65919   0.26396   0.12370   Biso      1.000     Zn          0.8559200000000001  
         Zn3       1.0000    0.34081   0.73604   0.87630   Biso      1.000     Zn          0.855917  
         Zn4       1.0000    0.73604   0.34081   0.37630   Biso      1.000     Zn          0.8559200000000001 