
##########################################################################
#               Crystallographic Information Format file
#               Produced by PyCifRW module
#
#  This is a CIF file.  CIF has been adopted by the International
#  Union of Crystallography as the standard for data archiving and
#  transmission.
#
#  For information on this file format, follow the CIF links at
#  http://www.iucr.org
##########################################################################

data_image0

_cell_length_a                          6.721
_cell_length_b                          10.1569
_cell_length_c                          10.1569
_cell_angle_alpha                       90.4069
_cell_angle_beta                        93.0712
_cell_angle_gamma                       86.9288
_symmetry_space_group_name_H-M          'P 1'
_symmetry_int_tables_number             1
loop_
  _symmetry_equiv_pos_as_xyz
         'x, y, z' 
loop_
  _atom_site_label
  _atom_site_occupancy
  _atom_site_fract_x
  _atom_site_fract_y
  _atom_site_fract_z
  _atom_site_thermal_displace_type
  _atom_site_B_iso_or_equiv
  _atom_site_type_symbol
  _atom_site_charge
         C1        1.0000    0.72210   0.04820   0.46640   Biso      1.000     C          -0.127608           
         C2        1.0000    0.65370   0.61950   0.85970   Biso      1.000     C          0.574437  
         C3        1.0000    0.78330   0.66970   0.22290   Biso      1.000     C          -0.044433999999999994         
         C4        1.0000    0.83940   0.44230   0.17750   Biso      1.000     C          0.0010019999999999999         
         C5        1.0000    0.71300   0.59100   0.00220   Biso      1.000     C          0.010123  
         C6        1.0000    0.78700   0.00220   0.59100   Biso      1.000     C          0.010121  
         C7        1.0000    0.66060   0.17750   0.44230   Biso      1.000     C          0.001006  
         C8        1.0000    0.71670   0.22290   0.66970   Biso      1.000     C          -0.044433999999999994         
         C9        1.0000    0.84630   0.85970   0.61950   Biso      1.000     C          0.574438  
         C10       1.0000    0.78700   0.09390   0.69510   Biso      1.000     C          -0.132964           
         C11       1.0000    0.28700   0.40900   0.99780   Biso      1.000     C          0.010121999999999999          
         C12       1.0000    0.16060   0.55770   0.82250   Biso      1.000     C          0.0010019999999999999         
         C13       1.0000    0.21670   0.33030   0.77710   Biso      1.000     C          -0.044433999999999994         
         C14       1.0000    0.34630   0.38050   0.14030   Biso      1.000     C          0.574438  
         C15       1.0000    0.22210   0.53360   0.95180   Biso      1.000     C          -0.127605           
         C16       1.0000    0.28700   0.30490   0.90610   Biso      1.000     C          -0.132964           
         C17       1.0000    0.21300   0.99780   0.40900   Biso      1.000     C          0.010121999999999999          
         C18       1.0000    0.33940   0.82250   0.55770   Biso      1.000     C          0.0010019999999999999         
         C19       1.0000    0.28330   0.77710   0.33030   Biso      1.000     C          -0.044433999999999994         
         C20       1.0000    0.15370   0.14030   0.38050   Biso      1.000     C          0.574438  
         C21       1.0000    0.27790   0.95180   0.53360   Biso      1.000     C          -0.127605           
         C22       1.0000    0.21300   0.90610   0.30490   Biso      1.000     C          -0.132964           
         C23       1.0000    0.77790   0.46640   0.04820   Biso      1.000     C          -0.127605           
         C24       1.0000    0.71300   0.69510   0.09390   Biso      1.000     C          -0.132964           
         Cd1       1.0000    0.75000   0.57175   0.57175   Biso      1.000     Cd          1.022491  
         Cd2       1.0000    0.25000   0.42825   0.42825   Biso      1.000     Cd          1.022492  
         H1        1.0000    0.16670   0.93130   0.22030   Biso      1.000     H          0.144007  
         H2        1.0000    0.87460   0.35710   0.20670   Biso      1.000     H          0.141949  
         H3        1.0000    0.78670   0.73810   0.28410   Biso      1.000     H          0.131     
         H4        1.0000    0.77980   0.39630   0.98890   Biso      1.000     H          0.133193  
         H5        1.0000    0.66670   0.77970   0.06870   Biso      1.000     H          0.144007  
         H6        1.0000    0.62540   0.20670   0.35710   Biso      1.000     H          0.141949  
         H7        1.0000    0.71330   0.28410   0.73810   Biso      1.000     H          0.130999  
         H8        1.0000    0.72020   0.98890   0.39630   Biso      1.000     H          0.133191  
         H9        1.0000    0.27980   0.01110   0.60370   Biso      1.000     H          0.133193  
         H10       1.0000    0.12540   0.64290   0.79330   Biso      1.000     H          0.141949  
         H11       1.0000    0.21330   0.26190   0.71590   Biso      1.000     H          0.130999  
         H12       1.0000    0.22020   0.60370   0.01110   Biso      1.000     H          0.133192  
         H13       1.0000    0.33330   0.22030   0.93130   Biso      1.000     H          0.144007  
         H14       1.0000    0.37460   0.79330   0.64290   Biso      1.000     H          0.141949  
         H15       1.0000    0.28670   0.71590   0.26190   Biso      1.000     H          0.130998  
         H16       1.0000    0.83330   0.06870   0.77970   Biso      1.000     H          0.144007  
         N1        1.0000    0.84700   0.54570   0.26030   Biso      1.000     N          0.342494  
         N2        1.0000    0.65300   0.26030   0.54570   Biso      1.000     N          0.342493  
         N3        1.0000    0.15300   0.45430   0.73970   Biso      1.000     N          0.342494  
         N4        1.0000    0.34700   0.73970   0.45430   Biso      1.000     N          0.342493  
         O1        1.0000    0.05900   0.17320   0.27900   Biso      1.000     O          -0.5457390000000001           
         O2        1.0000    0.28620   0.47151   0.21883   Biso      1.000     O          -0.616546           
         O3        1.0000    0.07660   0.47620   0.61540   Biso      1.000     O          -0.522161           
         O4        1.0000    0.44100   0.27900   0.17320   Biso      1.000     O          -0.5457380000000001           
         O5        1.0000    0.78620   0.78117   0.52849   Biso      1.000     O          -0.616545           
         O6        1.0000    0.55900   0.72100   0.82680   Biso      1.000     O          -0.5457390000000001           
         O7        1.0000    0.94100   0.82680   0.72100   Biso      1.000     O          -0.5457390000000001           
         O8        1.0000    0.71380   0.52849   0.78117   Biso      1.000     O          -0.616546           
         O9        1.0000    0.92340   0.52380   0.38460   Biso      1.000     O          -0.522161           
         O10       1.0000    0.42340   0.61540   0.47620   Biso      1.000     O          -0.522161           
         O11       1.0000    0.57660   0.38460   0.52380   Biso      1.000     O          -0.522161           
         O12       1.0000    0.21380   0.21883   0.47151   Biso      1.000     O          -0.616546 