
##########################################################################
#               Crystallographic Information Format file
#               Produced by PyCifRW module
#
#  This is a CIF file.  CIF has been adopted by the International
#  Union of Crystallography as the standard for data archiving and
#  transmission.
#
#  For information on this file format, follow the CIF links at
#  http://www.iucr.org
##########################################################################

data_image0

_cell_length_a                          9.1683
_cell_length_b                          9.1683
_cell_length_c                          16.0239
_cell_angle_alpha                       73.8979
_cell_angle_beta                        73.8979
_cell_angle_gamma                       72.323
_symmetry_space_group_name_H-M          'P 1'
_symmetry_int_tables_number             1
loop_
  _symmetry_equiv_pos_as_xyz
         'x, y, z' 
loop_
  _atom_site_label
  _atom_site_occupancy
  _atom_site_fract_x
  _atom_site_fract_y
  _atom_site_fract_z
  _atom_site_thermal_displace_type
  _atom_site_B_iso_or_equiv
  _atom_site_type_symbol
  _atom_site_charge
         C1        1.0000    0.46940   0.20960   0.01750   Biso      1.000     C          -0.185836           
         C2        1.0000    0.53060   0.79040   0.98250   Biso      1.000     C          -0.185836           
         C3        1.0000    0.45750   0.82650   0.06510   Biso      1.000     C          0.136674  
         C4        1.0000    0.38880   0.85380   0.20000   Biso      1.000     C          0.207857  
         C5        1.0000    0.30280   0.91340   0.08080   Biso      1.000     C          0.16661   
         C6        1.0000    0.21830   0.97010   0.01290   Biso      1.000     C          -0.235778           
         C7        1.0000    0.29210   0.93630   0.93070   Biso      1.000     C          -0.053557           
         C8        1.0000    0.44750   0.84410   0.91440   Biso      1.000     C          -0.039531           
         C9        1.0000    0.19190   0.99070   0.86250   Biso      1.000     C          0.598957  
         C10       1.0000    0.15590   0.55250   0.58560   Biso      1.000     C          -0.039531           
         C11       1.0000    0.20960   0.46940   0.51750   Biso      1.000     C          -0.185836           
         C12       1.0000    0.17350   0.54250   0.43490   Biso      1.000     C          0.136674  
         C13       1.0000    0.14620   0.61120   0.30000   Biso      1.000     C          0.207857  
         C14       1.0000    0.08660   0.69720   0.41920   Biso      1.000     C          0.16661   
         C15       1.0000    0.02990   0.78170   0.48710   Biso      1.000     C          -0.235779           
         C16       1.0000    0.19440   0.47220   0.67440   Biso      1.000     C          0.577525  
         C17       1.0000    0.52780   0.80560   0.82560   Biso      1.000     C          0.577524  
         C18       1.0000    0.47220   0.19440   0.17440   Biso      1.000     C          0.577524  
         C19       1.0000    0.55250   0.15590   0.08560   Biso      1.000     C          -0.03953  
         C20       1.0000    0.99070   0.19190   0.36250   Biso      1.000     C          0.598957  
         C21       1.0000    0.93630   0.29210   0.43070   Biso      1.000     C          -0.053563           
         C22       1.0000    0.97010   0.21830   0.51290   Biso      1.000     C          -0.235774           
         C23       1.0000    0.91340   0.30280   0.58080   Biso      1.000     C          0.16661   
         C24       1.0000    0.85380   0.38880   0.70000   Biso      1.000     C          0.207857  
         C25       1.0000    0.82650   0.45750   0.56510   Biso      1.000     C          0.136674  
         C26       1.0000    0.79040   0.53060   0.48250   Biso      1.000     C          -0.185836           
         C27       1.0000    0.84410   0.44750   0.41440   Biso      1.000     C          -0.039531           
         C28       1.0000    0.80560   0.52780   0.32560   Biso      1.000     C          0.577525  
         C29       1.0000    0.80810   0.00930   0.13750   Biso      1.000     C          0.598957  
         C30       1.0000    0.70790   0.06370   0.06930   Biso      1.000     C          -0.053562           
         C31       1.0000    0.78170   0.02990   0.98710   Biso      1.000     C          -0.235774           
         C32       1.0000    0.69720   0.08660   0.91920   Biso      1.000     C          0.16661   
         C33       1.0000    0.61120   0.14620   0.80000   Biso      1.000     C          0.207857  
         C34       1.0000    0.54250   0.17350   0.93490   Biso      1.000     C          0.136674  
         C35       1.0000    0.06370   0.70790   0.56930   Biso      1.000     C          -0.053558           
         C36       1.0000    0.00930   0.80810   0.63750   Biso      1.000     C          0.598957  
         Cd1       1.0000    0.75199   0.66863   0.15939   Biso      1.000     Cd          0.963875  
         Cd2       1.0000    0.33137   0.24801   0.34061   Biso      1.000     Cd          0.963875  
         Cd3       1.0000    0.24801   0.33137   0.84061   Biso      1.000     Cd          0.963875  
         Cd4       1.0000    0.66863   0.75199   0.65939   Biso      1.000     Cd          0.963875  
         Cd5       1.0000    0.01399   0.98601   0.25000   Biso      1.000     Cd          0.917589  
         Cd6       1.0000    0.98601   0.01399   0.75000   Biso      1.000     Cd          0.917589  
         H1        1.0000    0.84660   0.39340   0.75830   Biso      1.000     H          0.101512  
         H2        1.0000    0.63360   0.73120   0.97260   Biso      1.000     H          0.129322  
         H3        1.0000    0.11510   0.02890   0.02310   Biso      1.000     H          0.129141  
         H4        1.0000    0.39340   0.84660   0.25830   Biso      1.000     H          0.101512  
         H5        1.0000    0.15340   0.60660   0.24170   Biso      1.000     H          0.101512  
         H6        1.0000    0.97110   0.88490   0.47690   Biso      1.000     H          0.129141  
         H7        1.0000    0.36640   0.26880   0.02740   Biso      1.000     H          0.129322  
         H8        1.0000    0.60660   0.15340   0.74170   Biso      1.000     H          0.101512  
         H9        1.0000    0.88490   0.97110   0.97690   Biso      1.000     H          0.129141  
         H10       1.0000    0.73120   0.63360   0.47260   Biso      1.000     H          0.129322  
         H11       1.0000    0.26880   0.36640   0.52740   Biso      1.000     H          0.129322  
         H12       1.0000    0.02890   0.11510   0.52310   Biso      1.000     H          0.129141  
         N1        1.0000    0.48930   0.21030   0.85750   Biso      1.000     N          -0.383581           
         N2        1.0000    0.92930   0.25950   0.66810   Biso      1.000     N          -0.379515           
         N3        1.0000    0.78970   0.51070   0.64250   Biso      1.000     N          -0.383581           
         N4        1.0000    0.74050   0.07070   0.83190   Biso      1.000     N          -0.379515           
         N5        1.0000    0.07070   0.74050   0.33190   Biso      1.000     N          -0.379515           
         N6        1.0000    0.25950   0.92930   0.16810   Biso      1.000     N          -0.379515           
         N7        1.0000    0.51070   0.78970   0.14250   Biso      1.000     N          -0.383581           
         N8        1.0000    0.21030   0.48930   0.35750   Biso      1.000     N          -0.383581           
         O1        1.0000    0.89460   0.48280   0.25730   Biso      1.000     O          -0.533668           
         O2        1.0000    0.68680   0.64200   0.32120   Biso      1.000     O          -0.564325           
         O3        1.0000    0.84670   0.11170   0.16020   Biso      1.000     O          -0.522258           
         O4        1.0000    0.85680   0.86520   0.16720   Biso      1.000     O          -0.572218           
         O5        1.0000    0.51720   0.10540   0.24270   Biso      1.000     O          -0.533668           
         O6        1.0000    0.35800   0.31320   0.17880   Biso      1.000     O          -0.564325           
         O7        1.0000    0.11170   0.84670   0.66020   Biso      1.000     O          -0.522258           
         O8        1.0000    0.86520   0.85680   0.66720   Biso      1.000     O          -0.572218           
         O9        1.0000    0.31320   0.35800   0.67880   Biso      1.000     O          -0.564324           
         O10       1.0000    0.15330   0.88830   0.83980   Biso      1.000     O          -0.522258           
         O11       1.0000    0.14320   0.13480   0.83280   Biso      1.000     O          -0.572218           
         O12       1.0000    0.48280   0.89460   0.75730   Biso      1.000     O          -0.533668           
         O13       1.0000    0.64200   0.68680   0.82120   Biso      1.000     O          -0.564324           
         O14       1.0000    0.13480   0.14320   0.33280   Biso      1.000     O          -0.572218           
         O15       1.0000    0.10540   0.51720   0.74270   Biso      1.000     O          -0.533668           
         O16       1.0000    0.88830   0.15330   0.33980   Biso      1.000     O          -0.522258 