
##########################################################################
#               Crystallographic Information Format file
#               Produced by PyCifRW module
#
#  This is a CIF file.  CIF has been adopted by the International
#  Union of Crystallography as the standard for data archiving and
#  transmission.
#
#  For information on this file format, follow the CIF links at
#  http://www.iucr.org
##########################################################################

data_image0

_cell_length_a                          8.2368
_cell_length_b                          9.4063
_cell_length_c                          20.366
_cell_angle_alpha                       90
_cell_angle_beta                        90
_cell_angle_gamma                       110.286
_symmetry_space_group_name_H-M          'P 1'
_symmetry_int_tables_number             1
loop_
  _symmetry_equiv_pos_as_xyz
         'x, y, z' 
loop_
  _atom_site_label
  _atom_site_occupancy
  _atom_site_fract_x
  _atom_site_fract_y
  _atom_site_fract_z
  _atom_site_thermal_displace_type
  _atom_site_B_iso_or_equiv
  _atom_site_type_symbol
  _atom_site_charge
         C1        1.0000    0.13870   0.29090   0.37900   Biso      1.000     C          -0.294204           
         C2        1.0000    0.86130   0.70910   0.62100   Biso      1.000     C          -0.294205           
         C3        1.0000    0.06000   0.94040   0.56678   Biso      1.000     C          -0.275212           
         C4        1.0000    0.18090   0.09570   0.58864   Biso      1.000     C          0.6207520000000001  
         C5        1.0000    0.17990   0.77160   0.62087   Biso      1.000     C          -0.415851           
         C6        1.0000    0.56960   0.46200   0.50264   Biso      1.000     C          0.5250600000000001  
         C7        1.0000    0.21740   0.82040   0.18958   Biso      1.000     C          0.674716  
         C8        1.0000    0.13870   0.79090   0.12100   Biso      1.000     C          -0.294207           
         C9        1.0000    0.94000   0.55960   0.06678   Biso      1.000     C          -0.27521  
         C10       1.0000    0.81910   0.40430   0.08864   Biso      1.000     C          0.620753  
         C11       1.0000    0.82010   0.72840   0.12087   Biso      1.000     C          -0.41585  
         C12       1.0000    0.43040   0.03800   0.00264   Biso      1.000     C          0.525061  
         C13       1.0000    0.21740   0.32040   0.31042   Biso      1.000     C          0.674714  
         C14       1.0000    0.06000   0.44040   0.93322   Biso      1.000     C          -0.27521100000000004          
         C15       1.0000    0.94000   0.05960   0.43322   Biso      1.000     C          -0.27520900000000004          
         C16       1.0000    0.81910   0.90430   0.41136   Biso      1.000     C          0.620753  
         C17       1.0000    0.82010   0.22840   0.37913   Biso      1.000     C          -0.41585  
         C18       1.0000    0.43040   0.53800   0.49736   Biso      1.000     C          0.5250600000000001  
         C19       1.0000    0.78260   0.67960   0.68958   Biso      1.000     C          0.674713  
         C20       1.0000    0.78260   0.17960   0.81042   Biso      1.000     C          0.674715  
         C21       1.0000    0.86130   0.20910   0.87900   Biso      1.000     C          -0.294205           
         C22       1.0000    0.56960   0.96200   0.99736   Biso      1.000     C          0.5250600000000001  
         C23       1.0000    0.17990   0.27160   0.87913   Biso      1.000     C          -0.41585200000000005          
         C24       1.0000    0.18090   0.59570   0.91136   Biso      1.000     C          0.6207520000000001  
         Cu1       1.0000    0.03966   0.95409   0.70291   Biso      1.000     Cu          0.8690049999999999  
         Cu2       1.0000    0.96034   0.54591   0.20291   Biso      1.000     Cu          0.869006  
         Cu3       1.0000    0.96034   0.04591   0.29709   Biso      1.000     Cu          0.8690049999999999  
         Cu4       1.0000    0.03966   0.45409   0.79709   Biso      1.000     Cu          0.8690040000000001  
         H1        1.0000    0.05260   0.55330   0.05320   Biso      1.000     H          0.14793199999999998           
         H2        1.0000    0.78270   0.73820   0.59140   Biso      1.000     H          0.148152  
         H3        1.0000    0.87350   0.61500   0.60370   Biso      1.000     H          0.15798199999999998           
         H4        1.0000    0.11070   0.90510   0.52870   Biso      1.000     H          0.148738  
         H5        1.0000    0.94740   0.94670   0.55320   Biso      1.000     H          0.14793199999999998           
         H6        1.0000    0.88930   0.59490   0.02870   Biso      1.000     H          0.14873599999999998           
         H7        1.0000    0.28640   0.85040   0.60660   Biso      1.000     H          0.174777  
         H8        1.0000    0.21730   0.76180   0.09140   Biso      1.000     H          0.148152  
         H9        1.0000    0.15220   0.68840   0.58950   Biso      1.000     H          0.160821  
         H10       1.0000    0.15220   0.18840   0.91050   Biso      1.000     H          0.160821  
         H11       1.0000    0.84780   0.81160   0.08950   Biso      1.000     H          0.16082   
         H12       1.0000    0.71360   0.64960   0.10660   Biso      1.000     H          0.174776  
         H13       1.0000    0.21730   0.26180   0.40860   Biso      1.000     H          0.148152  
         H14       1.0000    0.12650   0.38500   0.39630   Biso      1.000     H          0.15798099999999998           
         H15       1.0000    0.28640   0.35040   0.89340   Biso      1.000     H          0.174778  
         H16       1.0000    0.88930   0.09490   0.47130   Biso      1.000     H          0.14873599999999998           
         H17       1.0000    0.05260   0.05330   0.44680   Biso      1.000     H          0.147931  
         H18       1.0000    0.84780   0.31160   0.41050   Biso      1.000     H          0.160821  
         H19       1.0000    0.71360   0.14960   0.39340   Biso      1.000     H          0.174775  
         H20       1.0000    0.78270   0.23820   0.90860   Biso      1.000     H          0.148152  
         H21       1.0000    0.87350   0.11500   0.89630   Biso      1.000     H          0.15798199999999998           
         H22       1.0000    0.11070   0.40510   0.97130   Biso      1.000     H          0.14873699999999998           
         H23       1.0000    0.94740   0.44670   0.94680   Biso      1.000     H          0.14793199999999998           
         H24       1.0000    0.12650   0.88500   0.10370   Biso      1.000     H          0.15798199999999998           
         N1        1.0000    0.96590   0.66790   0.12175   Biso      1.000     N          -0.01384  
         N2        1.0000    0.96590   0.16790   0.37825   Biso      1.000     N          -0.01384  
         N3        1.0000    0.03410   0.33210   0.87825   Biso      1.000     N          -0.013838999999999999         
         N4        1.0000    0.03410   0.83210   0.62175   Biso      1.000     N          -0.013838           
         Nd1       1.0000    0.38068   0.40280   0.64808   Biso      1.000     Nd          2.1529439999999997  
         Nd2       1.0000    0.38068   0.90280   0.85192   Biso      1.000     Nd          2.152946  
         Nd3       1.0000    0.61932   0.59720   0.35192   Biso      1.000     Nd          2.152943  
         Nd4       1.0000    0.61932   0.09720   0.14808   Biso      1.000     Nd          2.1529439999999997  
         O1        1.0000    0.95220   0.92920   0.21860   Biso      1.000     O          -0.759125           
         O2        1.0000    0.15600   0.21880   0.26667   Biso      1.000     O          -0.515097           
         O3        1.0000    0.34170   0.44100   0.30030   Biso      1.000     O          -0.621517           
         O4        1.0000    0.79600   0.88320   0.34881   Biso      1.000     O          -0.653658           
         O5        1.0000    0.75150   0.80170   0.45070   Biso      1.000     O          -0.5706720000000001           
         O6        1.0000    0.63720   0.36190   0.31045   Biso      1.000     O          -0.8511639999999999           
         O7        1.0000    0.95220   0.42920   0.28140   Biso      1.000     O          -0.759126           
         O8        1.0000    0.73900   0.16460   0.25503   Biso      1.000     O          -0.904386           
         O9        1.0000    0.40640   0.58540   0.44147   Biso      1.000     O          -0.633389           
         O10       1.0000    0.84400   0.28120   0.76667   Biso      1.000     O          -0.515099           
         O11       1.0000    0.35180   0.04500   0.95095   Biso      1.000     O          -0.620384           
         O12       1.0000    0.65830   0.05900   0.80030   Biso      1.000     O          -0.621517           
         O13       1.0000    0.20400   0.61680   0.84881   Biso      1.000     O          -0.653658           
         O14       1.0000    0.24850   0.69830   0.95070   Biso      1.000     O          -0.570673           
         O15       1.0000    0.36280   0.13810   0.81045   Biso      1.000     O          -0.851167           
         O16       1.0000    0.04780   0.07080   0.78140   Biso      1.000     O          -0.759123           
         O17       1.0000    0.26100   0.33540   0.75503   Biso      1.000     O          -0.904386           
         O18       1.0000    0.35180   0.54500   0.54905   Biso      1.000     O          -0.620383           
         O19       1.0000    0.40640   0.08540   0.05853   Biso      1.000     O          -0.633389           
         O20       1.0000    0.64820   0.95500   0.04905   Biso      1.000     O          -0.620384           
         O21       1.0000    0.59360   0.91460   0.94147   Biso      1.000     O          -0.633389           
         O22       1.0000    0.84400   0.78120   0.73333   Biso      1.000     O          -0.515097           
         O23       1.0000    0.65830   0.55900   0.69970   Biso      1.000     O          -0.621517           
         O24       1.0000    0.20400   0.11680   0.65119   Biso      1.000     O          -0.6536569999999999           
         O25       1.0000    0.24850   0.19830   0.54930   Biso      1.000     O          -0.5706720000000001           
         O26       1.0000    0.36280   0.63810   0.68955   Biso      1.000     O          -0.851166           
         O27       1.0000    0.73900   0.66460   0.24497   Biso      1.000     O          -0.904387           
         O28       1.0000    0.26100   0.83540   0.74497   Biso      1.000     O          -0.904385           
         O29       1.0000    0.04780   0.57080   0.71860   Biso      1.000     O          -0.759123           
         O30       1.0000    0.64820   0.45500   0.45095   Biso      1.000     O          -0.620384           
         O31       1.0000    0.15600   0.71880   0.23333   Biso      1.000     O          -0.515099           
         O32       1.0000    0.34170   0.94100   0.19970   Biso      1.000     O          -0.621517           
         O33       1.0000    0.79600   0.38320   0.15119   Biso      1.000     O          -0.65366  
         O34       1.0000    0.75150   0.30170   0.04930   Biso      1.000     O          -0.570673           
         O35       1.0000    0.63720   0.86190   0.18955   Biso      1.000     O          -0.851165           
         O36       1.0000    0.59360   0.41460   0.55853   Biso      1.000     O          -0.633389           
         P1        1.0000    0.21773   0.69964   0.69938   Biso      1.000     P          1.3476219999999999  
         P2        1.0000    0.78227   0.80036   0.19938   Biso      1.000     P          1.347626  
         P3        1.0000    0.78227   0.30036   0.30062   Biso      1.000     P          1.347625  
         P4        1.0000    0.21773   0.19964   0.80062   Biso      1.000     P          1.347624 