
##########################################################################
#               Crystallographic Information Format file
#               Produced by PyCifRW module
#
#  This is a CIF file.  CIF has been adopted by the International
#  Union of Crystallography as the standard for data archiving and
#  transmission.
#
#  For information on this file format, follow the CIF links at
#  http://www.iucr.org
##########################################################################

data_image0

_cell_length_a                          9.106
_cell_length_b                          9.106
_cell_length_c                          14.4522
_cell_angle_alpha                       79.7737
_cell_angle_beta                        79.7737
_cell_angle_gamma                       115.878
_symmetry_space_group_name_H-M          'P 1'
_symmetry_int_tables_number             1
loop_
  _symmetry_equiv_pos_as_xyz
         'x, y, z' 
loop_
  _atom_site_label
  _atom_site_occupancy
  _atom_site_fract_x
  _atom_site_fract_y
  _atom_site_fract_z
  _atom_site_thermal_displace_type
  _atom_site_B_iso_or_equiv
  _atom_site_type_symbol
  _atom_site_charge
         C1        1.0000    0.77937   0.46057   0.43566   Biso      1.000     C          -0.17513  
         C2        1.0000    0.21503   0.39623   0.56434   Biso      1.000     C          -0.176014           
         C3        1.0000    0.06561   0.24601   0.55818   Biso      1.000     C          0.699316  
         C4        1.0000    0.96057   0.27937   0.93566   Biso      1.000     C          -0.17513  
         C5        1.0000    0.80419   0.12379   0.94182   Biso      1.000     C          0.699124  
         C6        1.0000    0.10377   0.28497   0.93566   Biso      1.000     C          -0.175971           
         C7        1.0000    0.25399   0.43439   0.94182   Biso      1.000     C          0.699312  
         C8        1.0000    0.74601   0.56561   0.05818   Biso      1.000     C          0.699317  
         C9        1.0000    0.89623   0.71503   0.06434   Biso      1.000     C          -0.176014           
         C10       1.0000    0.19581   0.87621   0.05818   Biso      1.000     C          0.69912   
         C11       1.0000    0.03943   0.72063   0.06434   Biso      1.000     C          -0.175088           
         C12       1.0000    0.93439   0.75399   0.44182   Biso      1.000     C          0.699312  
         C13       1.0000    0.78497   0.60377   0.43566   Biso      1.000     C          -0.175971           
         C14       1.0000    0.62379   0.30419   0.44182   Biso      1.000     C          0.699124  
         C15       1.0000    0.67490   0.82510   0.75000   Biso      1.000     C          0.529564  
         C16       1.0000    0.57510   0.92490   0.75000   Biso      1.000     C          0.531295  
         C17       1.0000    0.32510   0.17490   0.25000   Biso      1.000     C          0.529564  
         C18       1.0000    0.42490   0.07510   0.25000   Biso      1.000     C          0.531295  
         C19       1.0000    0.37621   0.69581   0.55818   Biso      1.000     C          0.69912   
         C20       1.0000    0.22063   0.53943   0.56434   Biso      1.000     C          -0.175088           
         Gd1       1.0000    0.50938   0.75938   0.98124   Biso      1.000     Gd          2.073191  
         Gd2       1.0000    0.74062   0.99062   0.51876   Biso      1.000     Gd          2.073192  
         Gd3       1.0000    0.49062   0.24062   0.01876   Biso      1.000     Gd          2.073189  
         Gd4       1.0000    0.25938   0.00938   0.48124   Biso      1.000     Gd          2.073188  
         H1        1.0000    0.87500   0.45900   0.44600   Biso      1.000     H          0.136112  
         H2        1.0000    0.09500   0.17900   0.94600   Biso      1.000     H          0.135349  
         H3        1.0000    0.67900   0.59500   0.44600   Biso      1.000     H          0.13535   
         H4        1.0000    0.32100   0.40500   0.55400   Biso      1.000     H          0.135352  
         H5        1.0000    0.12500   0.54100   0.55400   Biso      1.000     H          0.136109  
         H6        1.0000    0.90500   0.82100   0.05400   Biso      1.000     H          0.135352  
         H7        1.0000    0.04100   0.62500   0.05400   Biso      1.000     H          0.13611   
         H8        1.0000    0.95900   0.37500   0.94600   Biso      1.000     H          0.136112  
         O1        1.0000    0.62656   0.16624   0.46720   Biso      1.000     O          -0.743834           
         O2        1.0000    0.63344   0.59376   0.03280   Biso      1.000     O          -0.743125           
         O3        1.0000    0.23776   0.15994   0.33170   Biso      1.000     O          -0.602862           
         O4        1.0000    0.08068   0.76926   0.42426   Biso      1.000     O          -0.615125           
         O5        1.0000    0.90624   0.86656   0.46720   Biso      1.000     O          -0.743126           
         O6        1.0000    0.49164   0.06946   0.16830   Biso      1.000     O          -0.603377           
         O7        1.0000    0.19352   0.00494   0.07574   Biso      1.000     O          -0.614092           
         O8        1.0000    0.33376   0.87344   0.03280   Biso      1.000     O          -0.743834           
         O9        1.0000    0.34006   0.26224   0.16830   Biso      1.000     O          -0.602863           
         O10       1.0000    0.73074   0.41932   0.07574   Biso      1.000     O          -0.615126           
         O11       1.0000    0.56946   0.99164   0.66830   Biso      1.000     O          -0.603377           
         O12       1.0000    0.09376   0.13344   0.53280   Biso      1.000     O          -0.743125           
         O13       1.0000    0.37344   0.83376   0.53280   Biso      1.000     O          -0.743834           
         O14       1.0000    0.76224   0.84006   0.66830   Biso      1.000     O          -0.602863           
         O15       1.0000    0.91932   0.23074   0.57574   Biso      1.000     O          -0.615126           
         O16       1.0000    0.50836   0.93054   0.83170   Biso      1.000     O          -0.603377           
         O17       1.0000    0.80648   0.99506   0.92426   Biso      1.000     O          -0.614092           
         O18       1.0000    0.66624   0.12656   0.96720   Biso      1.000     O          -0.743833           
         O19       1.0000    0.65994   0.73776   0.83170   Biso      1.000     O          -0.602862           
         O20       1.0000    0.26926   0.58068   0.92426   Biso      1.000     O          -0.615126           
         O21       1.0000    0.36656   0.40624   0.96720   Biso      1.000     O          -0.743126           
         O22       1.0000    0.49506   0.30648   0.42426   Biso      1.000     O          -0.614092           
         O23       1.0000    0.50494   0.69352   0.57574   Biso      1.000     O          -0.614092           
         O24       1.0000    0.43054   0.00836   0.33170   Biso      1.000     O          -0.603377 