
##########################################################################
#               Crystallographic Information Format file
#               Produced by PyCifRW module
#
#  This is a CIF file.  CIF has been adopted by the International
#  Union of Crystallography as the standard for data archiving and
#  transmission.
#
#  For information on this file format, follow the CIF links at
#  http://www.iucr.org
##########################################################################

data_image0

_cell_length_a                          9.6867
_cell_length_b                          15.449
_cell_length_c                          27.303
_cell_angle_alpha                       90
_cell_angle_beta                        90
_cell_angle_gamma                       90
_symmetry_space_group_name_H-M          'P 1'
_symmetry_int_tables_number             1
loop_
  _symmetry_equiv_pos_as_xyz
         'x, y, z' 
loop_
  _atom_site_label
  _atom_site_occupancy
  _atom_site_fract_x
  _atom_site_fract_y
  _atom_site_fract_z
  _atom_site_thermal_displace_type
  _atom_site_B_iso_or_equiv
  _atom_site_type_symbol
  _atom_site_charge
         C1        1.0000    0.91220   0.34030   0.96792   Biso      1.000     C          -0.167929           
         C2        1.0000    0.33780   0.40970   0.46792   Biso      1.000     C          -0.16793  
         C3        1.0000    0.18470   0.40980   0.47076   Biso      1.000     C          0.69476   
         C4        1.0000    0.33780   0.90970   0.96792   Biso      1.000     C          -0.167929           
         C5        1.0000    0.18470   0.90980   0.97076   Biso      1.000     C          0.69476   
         C6        1.0000    0.83780   0.40970   0.96792   Biso      1.000     C          -0.167889           
         C7        1.0000    0.68470   0.40980   0.97076   Biso      1.000     C          0.694756  
         C8        1.0000    0.83780   0.90970   0.46792   Biso      1.000     C          -0.167929           
         C9        1.0000    0.68470   0.90980   0.47076   Biso      1.000     C          0.69476   
         C10       1.0000    0.91220   0.84030   0.46792   Biso      1.000     C          -0.167889           
         C11       1.0000    0.06530   0.84020   0.47076   Biso      1.000     C          0.694756  
         C12       1.0000    0.87500   0.82450   0.87500   Biso      1.000     C          0.527815  
         C13       1.0000    0.06530   0.34020   0.97076   Biso      1.000     C          0.69476   
         C14       1.0000    0.68470   0.34020   0.77924   Biso      1.000     C          0.69476   
         C15       1.0000    0.41220   0.84030   0.96792   Biso      1.000     C          -0.167889           
         C16       1.0000    0.41220   0.34030   0.46792   Biso      1.000     C          -0.167889           
         C17       1.0000    0.56530   0.34020   0.47076   Biso      1.000     C          0.694756  
         C18       1.0000    0.08780   0.59030   0.21792   Biso      1.000     C          -0.16793  
         C19       1.0000    0.93470   0.59020   0.22076   Biso      1.000     C          0.69476   
         C20       1.0000    0.08780   0.09030   0.71792   Biso      1.000     C          -0.16793  
         C21       1.0000    0.93470   0.09020   0.72076   Biso      1.000     C          0.69476   
         C22       1.0000    0.58780   0.59030   0.71792   Biso      1.000     C          -0.167929           
         C23       1.0000    0.43470   0.59020   0.72076   Biso      1.000     C          0.69476   
         C24       1.0000    0.58780   0.09030   0.21792   Biso      1.000     C          -0.167929           
         C25       1.0000    0.43470   0.09020   0.22076   Biso      1.000     C          0.69476   
         C26       1.0000    0.66220   0.15970   0.21792   Biso      1.000     C          -0.167889           
         C27       1.0000    0.81530   0.15980   0.22076   Biso      1.000     C          0.694756  
         C28       1.0000    0.56530   0.84020   0.97076   Biso      1.000     C          0.694756  
         C29       1.0000    0.66220   0.65970   0.71792   Biso      1.000     C          -0.167889           
         C30       1.0000    0.83780   0.34030   0.78208   Biso      1.000     C          -0.167929           
         C31       1.0000    0.83780   0.84030   0.28208   Biso      1.000     C          -0.167929           
         C32       1.0000    0.37500   0.92550   0.37500   Biso      1.000     C          0.527815  
         C33       1.0000    0.37500   0.42550   0.87500   Biso      1.000     C          0.527815  
         C34       1.0000    0.37500   0.32450   0.87500   Biso      1.000     C          0.527815  
         C35       1.0000    0.37500   0.82450   0.37500   Biso      1.000     C          0.527815  
         C36       1.0000    0.87500   0.92550   0.87500   Biso      1.000     C          0.527815  
         C37       1.0000    0.87500   0.42550   0.37500   Biso      1.000     C          0.527815  
         C38       1.0000    0.12500   0.67550   0.62500   Biso      1.000     C          0.527815  
         C39       1.0000    0.12500   0.17550   0.12500   Biso      1.000     C          0.527815  
         C40       1.0000    0.62500   0.57450   0.12500   Biso      1.000     C          0.527815  
         C41       1.0000    0.62500   0.67550   0.12500   Biso      1.000     C          0.527815  
         C42       1.0000    0.62500   0.17550   0.62500   Biso      1.000     C          0.527815  
         C43       1.0000    0.62500   0.07450   0.62500   Biso      1.000     C          0.527815  
         C44       1.0000    0.68470   0.84020   0.27924   Biso      1.000     C          0.69476   
         C45       1.0000    0.12500   0.07450   0.12500   Biso      1.000     C          0.527815  
         C46       1.0000    0.91220   0.40970   0.78208   Biso      1.000     C          -0.167889           
         C47       1.0000    0.06530   0.40980   0.77924   Biso      1.000     C          0.694756  
         C48       1.0000    0.91220   0.90970   0.28208   Biso      1.000     C          -0.167889           
         C49       1.0000    0.06530   0.90980   0.27924   Biso      1.000     C          0.694756  
         C50       1.0000    0.41220   0.40970   0.28208   Biso      1.000     C          -0.167929           
         C51       1.0000    0.56530   0.40980   0.27924   Biso      1.000     C          0.69476   
         C52       1.0000    0.41220   0.90970   0.78208   Biso      1.000     C          -0.167929           
         C53       1.0000    0.56530   0.90980   0.77924   Biso      1.000     C          0.69476   
         C54       1.0000    0.33780   0.84030   0.78208   Biso      1.000     C          -0.167889           
         C55       1.0000    0.18470   0.84020   0.77924   Biso      1.000     C          0.694756  
         C56       1.0000    0.33780   0.34030   0.28208   Biso      1.000     C          -0.167889           
         C57       1.0000    0.18470   0.34020   0.27924   Biso      1.000     C          0.694756  
         C58       1.0000    0.12500   0.57450   0.62500   Biso      1.000     C          0.527815  
         C59       1.0000    0.81530   0.65980   0.72076   Biso      1.000     C          0.694756  
         C60       1.0000    0.87500   0.32450   0.37500   Biso      1.000     C          0.527815  
         C61       1.0000    0.31530   0.09020   0.52924   Biso      1.000     C          0.694756  
         C62       1.0000    0.08780   0.15970   0.53208   Biso      1.000     C          -0.16793  
         C63       1.0000    0.93470   0.15980   0.52924   Biso      1.000     C          0.69476   
         C64       1.0000    0.31530   0.59020   0.02924   Biso      1.000     C          0.694756  
         C65       1.0000    0.81530   0.09020   0.02924   Biso      1.000     C          0.69476   
         C66       1.0000    0.66220   0.09030   0.03208   Biso      1.000     C          -0.167929           
         C67       1.0000    0.08780   0.65970   0.03208   Biso      1.000     C          -0.16793  
         C68       1.0000    0.81530   0.59020   0.52924   Biso      1.000     C          0.69476   
         C69       1.0000    0.66220   0.59030   0.53208   Biso      1.000     C          -0.167929           
         C70       1.0000    0.31530   0.65980   0.22076   Biso      1.000     C          0.694756  
         C71       1.0000    0.93470   0.65980   0.02924   Biso      1.000     C          0.69476   
         C72       1.0000    0.16220   0.65970   0.21792   Biso      1.000     C          -0.167889           
         C73       1.0000    0.58780   0.15970   0.03208   Biso      1.000     C          -0.167889           
         C74       1.0000    0.16220   0.59030   0.03208   Biso      1.000     C          -0.167889           
         C75       1.0000    0.58780   0.65970   0.53208   Biso      1.000     C          -0.167889           
         C76       1.0000    0.43470   0.15980   0.02924   Biso      1.000     C          0.694756  
         C77       1.0000    0.16220   0.09030   0.53208   Biso      1.000     C          -0.167889           
         C78       1.0000    0.43470   0.65980   0.52924   Biso      1.000     C          0.694756  
         C79       1.0000    0.16220   0.15970   0.71792   Biso      1.000     C          -0.167889           
         C80       1.0000    0.31530   0.15980   0.72076   Biso      1.000     C          0.694756  
         Gd1       1.0000    0.12500   0.62500   0.50944   Biso      1.000     Gd          2.070987  
         Gd2       1.0000    0.12500   0.12500   0.00944   Biso      1.000     Gd          2.070987  
         Gd3       1.0000    0.62500   0.62500   0.00944   Biso      1.000     Gd          2.070987  
         Gd4       1.0000    0.62500   0.12500   0.50944   Biso      1.000     Gd          2.070987  
         Gd5       1.0000    0.62500   0.62500   0.24056   Biso      1.000     Gd          2.070987  
         Gd6       1.0000    0.12500   0.12500   0.24056   Biso      1.000     Gd          2.070987  
         Gd7       1.0000    0.12500   0.62500   0.74056   Biso      1.000     Gd          2.070987  
         Gd8       1.0000    0.87500   0.37500   0.49056   Biso      1.000     Gd          2.070987  
         Gd9       1.0000    0.37500   0.87500   0.49056   Biso      1.000     Gd          2.070987  
         Gd10      1.0000    0.37500   0.37500   0.99056   Biso      1.000     Gd          2.070987  
         Gd11      1.0000    0.62500   0.12500   0.74056   Biso      1.000     Gd          2.070987  
         Gd12      1.0000    0.87500   0.87500   0.99056   Biso      1.000     Gd          2.070987  
         Gd13      1.0000    0.37500   0.87500   0.25944   Biso      1.000     Gd          2.070987  
         Gd14      1.0000    0.87500   0.87500   0.75944   Biso      1.000     Gd          2.070987  
         Gd15      1.0000    0.87500   0.37500   0.25944   Biso      1.000     Gd          2.070987  
         Gd16      1.0000    0.37500   0.37500   0.75944   Biso      1.000     Gd          2.070987  
         H1        1.0000    0.38270   0.78720   0.78400   Biso      1.000     H          0.136661  
         H2        1.0000    0.38270   0.96280   0.96600   Biso      1.000     H          0.136663  
         H3        1.0000    0.61730   0.03720   0.03400   Biso      1.000     H          0.136663  
         H4        1.0000    0.36730   0.96280   0.78400   Biso      1.000     H          0.136663  
         H5        1.0000    0.38270   0.28720   0.28400   Biso      1.000     H          0.136661  
         H6        1.0000    0.88270   0.46280   0.96600   Biso      1.000     H          0.136661  
         H7        1.0000    0.38270   0.46280   0.46600   Biso      1.000     H          0.136663  
         H8        1.0000    0.13270   0.21280   0.53400   Biso      1.000     H          0.136663  
         H9        1.0000    0.86730   0.78720   0.46600   Biso      1.000     H          0.136661  
         H10       1.0000    0.86730   0.96280   0.28400   Biso      1.000     H          0.136661  
         H11       1.0000    0.88270   0.96280   0.46600   Biso      1.000     H          0.136663  
         H12       1.0000    0.61730   0.71280   0.71600   Biso      1.000     H          0.136661  
         H13       1.0000    0.86730   0.28720   0.96600   Biso      1.000     H          0.136663  
         H14       1.0000    0.11730   0.21280   0.71600   Biso      1.000     H          0.136661  
         H15       1.0000    0.36730   0.46280   0.28400   Biso      1.000     H          0.136663  
         H16       1.0000    0.11730   0.03720   0.53400   Biso      1.000     H          0.136661  
         H17       1.0000    0.86730   0.46280   0.78400   Biso      1.000     H          0.136661  
         H18       1.0000    0.63270   0.21280   0.03400   Biso      1.000     H          0.136661  
         H19       1.0000    0.63270   0.03720   0.21600   Biso      1.000     H          0.136663  
         H20       1.0000    0.11730   0.71280   0.21600   Biso      1.000     H          0.136661  
         H21       1.0000    0.63270   0.53720   0.71600   Biso      1.000     H          0.136663  
         H22       1.0000    0.61730   0.21280   0.21600   Biso      1.000     H          0.136661  
         H23       1.0000    0.88270   0.78720   0.28400   Biso      1.000     H          0.136663  
         H24       1.0000    0.13270   0.71280   0.03400   Biso      1.000     H          0.136663  
         H25       1.0000    0.13270   0.53720   0.21600   Biso      1.000     H          0.136663  
         H26       1.0000    0.13270   0.03720   0.71600   Biso      1.000     H          0.136663  
         H27       1.0000    0.11730   0.53720   0.03400   Biso      1.000     H          0.136661  
         H28       1.0000    0.61730   0.53720   0.53400   Biso      1.000     H          0.136663  
         H29       1.0000    0.36730   0.28720   0.46600   Biso      1.000     H          0.136661  
         H30       1.0000    0.36730   0.78720   0.96600   Biso      1.000     H          0.136661  
         H31       1.0000    0.88270   0.28720   0.78400   Biso      1.000     H          0.136663  
         H32       1.0000    0.63270   0.71280   0.53400   Biso      1.000     H          0.136661  
         O1        1.0000    0.86440   0.96144   0.83426   Biso      1.000     O          -0.602124           
         O2        1.0000    0.63750   0.84402   0.78806   Biso      1.000     O          -0.620004           
         O3        1.0000    0.11250   0.90598   0.78806   Biso      1.000     O          -0.620003           
         O4        1.0000    0.12980   0.77013   0.76646   Biso      1.000     O          -0.740785           
         O5        1.0000    0.86440   0.46144   0.33426   Biso      1.000     O          -0.602124           
         O6        1.0000    0.61440   0.03856   0.58426   Biso      1.000     O          -0.602124           
         O7        1.0000    0.37020   0.02013   0.51646   Biso      1.000     O          -0.740785           
         O8        1.0000    0.62020   0.97987   0.76646   Biso      1.000     O          -0.740784           
         O9        1.0000    0.87020   0.72987   0.73354   Biso      1.000     O          -0.740785           
         O10       1.0000    0.62020   0.47987   0.26646   Biso      1.000     O          -0.740784           
         O11       1.0000    0.36250   0.59402   0.53806   Biso      1.000     O          -0.620003           
         O12       1.0000    0.11440   0.53856   0.58426   Biso      1.000     O          -0.602124           
         O13       1.0000    0.37980   0.22987   0.01646   Biso      1.000     O          -0.740785           
         O14       1.0000    0.36250   0.09402   0.03806   Biso      1.000     O          -0.620003           
         O15       1.0000    0.11440   0.03856   0.08426   Biso      1.000     O          -0.602124           
         O16       1.0000    0.87980   0.72987   0.01646   Biso      1.000     O          -0.740784           
         O17       1.0000    0.86250   0.59402   0.03806   Biso      1.000     O          -0.620004           
         O18       1.0000    0.38750   0.15598   0.53806   Biso      1.000     O          -0.620003           
         O19       1.0000    0.88560   0.78856   0.83426   Biso      1.000     O          -0.602124           
         O20       1.0000    0.13750   0.34402   0.78806   Biso      1.000     O          -0.620003           
         O21       1.0000    0.38560   0.78856   0.33426   Biso      1.000     O          -0.602124           
         O22       1.0000    0.61440   0.53856   0.08426   Biso      1.000     O          -0.602124           
         O23       1.0000    0.87980   0.22987   0.51646   Biso      1.000     O          -0.740784           
         O24       1.0000    0.13750   0.84402   0.28806   Biso      1.000     O          -0.620003           
         O25       1.0000    0.12020   0.97987   0.26646   Biso      1.000     O          -0.740785           
         O26       1.0000    0.88560   0.28856   0.33426   Biso      1.000     O          -0.602124           
         O27       1.0000    0.86250   0.09402   0.53806   Biso      1.000     O          -0.620004           
         O28       1.0000    0.63750   0.34402   0.28806   Biso      1.000     O          -0.620004           
         O29       1.0000    0.12020   0.47987   0.76646   Biso      1.000     O          -0.740785           
         O30       1.0000    0.38560   0.28856   0.83426   Biso      1.000     O          -0.602124           
         O31       1.0000    0.38750   0.65598   0.03806   Biso      1.000     O          -0.620003           
         O32       1.0000    0.12980   0.27013   0.26646   Biso      1.000     O          -0.740785           
         O33       1.0000    0.88750   0.65598   0.53806   Biso      1.000     O          -0.620004           
         O34       1.0000    0.63750   0.90598   0.96194   Biso      1.000     O          -0.620003           
         O35       1.0000    0.62020   0.77013   0.98354   Biso      1.000     O          -0.740785           
         O36       1.0000    0.88560   0.46144   0.41574   Biso      1.000     O          -0.602124           
         O37       1.0000    0.63750   0.40598   0.46194   Biso      1.000     O          -0.620003           
         O38       1.0000    0.62020   0.27013   0.48354   Biso      1.000     O          -0.740785           
         O39       1.0000    0.61440   0.71144   0.16574   Biso      1.000     O          -0.602124           
         O40       1.0000    0.13560   0.71144   0.58426   Biso      1.000     O          -0.602124           
         O41       1.0000    0.37020   0.72987   0.23354   Biso      1.000     O          -0.740785           
         O42       1.0000    0.86250   0.65598   0.21194   Biso      1.000     O          -0.620004           
         O43       1.0000    0.87980   0.52013   0.23354   Biso      1.000     O          -0.740784           
         O44       1.0000    0.61440   0.21144   0.66574   Biso      1.000     O          -0.602124           
         O45       1.0000    0.38750   0.59402   0.21194   Biso      1.000     O          -0.620003           
         O46       1.0000    0.86250   0.15598   0.71194   Biso      1.000     O          -0.620004           
         O47       1.0000    0.87980   0.02013   0.73354   Biso      1.000     O          -0.740784           
         O48       1.0000    0.11440   0.71144   0.66574   Biso      1.000     O          -0.602124           
         O49       1.0000    0.36250   0.65598   0.71194   Biso      1.000     O          -0.620004           
         O50       1.0000    0.37980   0.52013   0.73354   Biso      1.000     O          -0.740784           
         O51       1.0000    0.11440   0.21144   0.16574   Biso      1.000     O          -0.602124           
         O52       1.0000    0.63560   0.53856   0.16574   Biso      1.000     O          -0.602124           
         O53       1.0000    0.37020   0.22987   0.73354   Biso      1.000     O          -0.740785           
         O54       1.0000    0.36250   0.15598   0.21194   Biso      1.000     O          -0.620004           
         O55       1.0000    0.37980   0.02013   0.23354   Biso      1.000     O          -0.740784           
         O56       1.0000    0.13560   0.03856   0.16574   Biso      1.000     O          -0.602124           
         O57       1.0000    0.38750   0.09402   0.71194   Biso      1.000     O          -0.620003           
         O58       1.0000    0.88750   0.09402   0.21194   Biso      1.000     O          -0.620003           
         O59       1.0000    0.87020   0.22987   0.23354   Biso      1.000     O          -0.740785           
         O60       1.0000    0.13560   0.53856   0.66574   Biso      1.000     O          -0.602124           
         O61       1.0000    0.88750   0.59402   0.71194   Biso      1.000     O          -0.620003           
         O62       1.0000    0.88560   0.96144   0.91574   Biso      1.000     O          -0.602124           
         O63       1.0000    0.11250   0.40598   0.28806   Biso      1.000     O          -0.620003           
         O64       1.0000    0.12020   0.27013   0.98354   Biso      1.000     O          -0.740784           
         O65       1.0000    0.87020   0.52013   0.51646   Biso      1.000     O          -0.740784           
         O66       1.0000    0.36440   0.96144   0.33426   Biso      1.000     O          -0.602124           
         O67       1.0000    0.61250   0.90598   0.28806   Biso      1.000     O          -0.620004           
         O68       1.0000    0.62980   0.77013   0.26646   Biso      1.000     O          -0.740784           
         O69       1.0000    0.36440   0.46144   0.83426   Biso      1.000     O          -0.602124           
         O70       1.0000    0.63560   0.21144   0.58426   Biso      1.000     O          -0.602124           
         O71       1.0000    0.37020   0.52013   0.01646   Biso      1.000     O          -0.740785           
         O72       1.0000    0.61250   0.40598   0.78806   Biso      1.000     O          -0.620004           
         O73       1.0000    0.62980   0.27013   0.76646   Biso      1.000     O          -0.740784           
         O74       1.0000    0.86440   0.28856   0.41574   Biso      1.000     O          -0.602124           
         O75       1.0000    0.63560   0.03856   0.66574   Biso      1.000     O          -0.602124           
         O76       1.0000    0.11250   0.34402   0.46194   Biso      1.000     O          -0.620004           
         O77       1.0000    0.12980   0.47987   0.48354   Biso      1.000     O          -0.740784           
         O78       1.0000    0.86440   0.78856   0.91574   Biso      1.000     O          -0.602124           
         O79       1.0000    0.11250   0.84402   0.96194   Biso      1.000     O          -0.620004           
         O80       1.0000    0.12980   0.97987   0.98354   Biso      1.000     O          -0.740784           
         O81       1.0000    0.36440   0.28856   0.91574   Biso      1.000     O          -0.602124           
         O82       1.0000    0.63560   0.71144   0.08426   Biso      1.000     O          -0.602124           
         O83       1.0000    0.87020   0.02013   0.01646   Biso      1.000     O          -0.740784           
         O84       1.0000    0.61250   0.34402   0.96194   Biso      1.000     O          -0.620003           
         O85       1.0000    0.62980   0.47987   0.98354   Biso      1.000     O          -0.740785           
         O86       1.0000    0.36440   0.78856   0.41574   Biso      1.000     O          -0.602124           
         O87       1.0000    0.88750   0.15598   0.03806   Biso      1.000     O          -0.620004           
         O88       1.0000    0.61250   0.84402   0.46194   Biso      1.000     O          -0.620004           
         O89       1.0000    0.62980   0.97987   0.48354   Biso      1.000     O          -0.740784           
         O90       1.0000    0.38560   0.96144   0.41574   Biso      1.000     O          -0.602124           
         O91       1.0000    0.13750   0.90598   0.46194   Biso      1.000     O          -0.620003           
         O92       1.0000    0.12020   0.77013   0.48354   Biso      1.000     O          -0.740785           
         O93       1.0000    0.38560   0.46144   0.91574   Biso      1.000     O          -0.602124           
         O94       1.0000    0.13560   0.21144   0.08426   Biso      1.000     O          -0.602124           
         O95       1.0000    0.13750   0.40598   0.96194   Biso      1.000     O          -0.620004           
         O96       1.0000    0.37980   0.72987   0.51646   Biso      1.000     O          -0.740785 