
##########################################################################
#               Crystallographic Information Format file
#               Produced by PyCifRW module
#
#  This is a CIF file.  CIF has been adopted by the International
#  Union of Crystallography as the standard for data archiving and
#  transmission.
#
#  For information on this file format, follow the CIF links at
#  http://www.iucr.org
##########################################################################

data_image0

_cell_length_a                          18.59
_cell_length_b                          18.59
_cell_length_c                          18.59
_cell_angle_alpha                       74.8765
_cell_angle_beta                        74.8765
_cell_angle_gamma                       74.8765
_symmetry_space_group_name_H-M          'P 1'
_symmetry_int_tables_number             1
loop_
  _symmetry_equiv_pos_as_xyz
         'x, y, z' 
loop_
  _atom_site_label
  _atom_site_occupancy
  _atom_site_fract_x
  _atom_site_fract_y
  _atom_site_fract_z
  _atom_site_thermal_displace_type
  _atom_site_B_iso_or_equiv
  _atom_site_type_symbol
  _atom_site_charge
         C1        1.0000    0.11044   0.19001   0.78058   Biso      1.000     C          0.010898  
         C2        1.0000    0.03110   0.02987   0.92238   Biso      1.000     C          0.092425  
         C3        1.0000    0.06494   0.95744   0.95854   Biso      1.000     C          -0.212887           
         C4        1.0000    0.10031   0.27481   0.77521   Biso      1.000     C          0.561814  
         C5        1.0000    0.91966   0.05916   0.44255   Biso      1.000     C          0.627994  
         C6        1.0000    0.00400   0.06322   0.42165   Biso      1.000     C          -0.009965           
         C7        1.0000    0.04997   0.02548   0.47348   Biso      1.000     C          -0.112376           
         C8        1.0000    0.12801   0.02650   0.45484   Biso      1.000     C          -0.027544           
         C9        1.0000    0.15794   0.06573   0.38223   Biso      1.000     C          -0.175238           
         C10       1.0000    0.12684   0.03442   0.79698   Biso      1.000     C          -0.150553           
         C11       1.0000    0.11264   0.10306   0.33026   Biso      1.000     C          0.083191  
         C12       1.0000    0.17622   0.98446   0.51179   Biso      1.000     C          0.576706  
         C13       1.0000    0.14767   0.14283   0.25258   Biso      1.000     C          0.091399  
         C14       1.0000    0.21861   0.11002   0.21478   Biso      1.000     C          -0.214568           
         C15       1.0000    0.72101   0.17392   0.53553   Biso      1.000     C          0.623264  
         C16       1.0000    0.66814   0.23526   0.57461   Biso      1.000     C          -0.026568           
         C17       1.0000    0.66223   0.22735   0.65437   Biso      1.000     C          -0.135893           
         C18       1.0000    0.61044   0.28058   0.69001   Biso      1.000     C          0.010907  
         C19       1.0000    0.56569   0.34119   0.65009   Biso      1.000     C          -0.165116           
         C20       1.0000    0.03503   0.10289   0.35059   Biso      1.000     C          -0.1325   
         C21       1.0000    0.07362   0.07174   0.85296   Biso      1.000     C          0.077062  
         C22       1.0000    0.06569   0.15009   0.84119   Biso      1.000     C          -0.165112           
         C23       1.0000    0.16223   0.15437   0.72735   Biso      1.000     C          -0.135886           
         C24       1.0000    0.15437   0.72735   0.16223   Biso      1.000     C          -0.135895           
         C25       1.0000    0.19001   0.78058   0.11044   Biso      1.000     C          0.010907  
         C26       1.0000    0.15009   0.84119   0.06569   Biso      1.000     C          -0.165116           
         C27       1.0000    0.07174   0.85296   0.07362   Biso      1.000     C          0.077064  
         C28       1.0000    0.03442   0.79698   0.12684   Biso      1.000     C          -0.150553           
         C29       1.0000    0.02987   0.92238   0.03110   Biso      1.000     C          0.092425  
         C30       1.0000    0.27481   0.77521   0.10031   Biso      1.000     C          0.561813  
         C31       1.0000    0.41966   0.94255   0.55916   Biso      1.000     C          0.627993  
         C32       1.0000    0.50400   0.92165   0.56322   Biso      1.000     C          -0.009965           
         C33       1.0000    0.54997   0.97348   0.52548   Biso      1.000     C          -0.112376           
         C34       1.0000    0.62801   0.95484   0.52650   Biso      1.000     C          -0.027544           
         C35       1.0000    0.65794   0.88223   0.56573   Biso      1.000     C          -0.175237           
         C36       1.0000    0.61264   0.83026   0.60306   Biso      1.000     C          0.083191  
         C37       1.0000    0.53503   0.85059   0.60289   Biso      1.000     C          -0.1325   
         C38       1.0000    0.67622   0.01179   0.48446   Biso      1.000     C          0.576706  
         C39       1.0000    0.64767   0.75258   0.64283   Biso      1.000     C          0.0914    
         C40       1.0000    0.71861   0.71478   0.61002   Biso      1.000     C          -0.214568           
         C41       1.0000    0.22101   0.03553   0.67392   Biso      1.000     C          0.623263  
         C42       1.0000    0.16814   0.07461   0.73526   Biso      1.000     C          -0.026557           
         C43       1.0000    0.57362   0.35296   0.57174   Biso      1.000     C          0.077063  
         C44       1.0000    0.07461   0.73526   0.16814   Biso      1.000     C          -0.026555           
         C45       1.0000    0.62684   0.29698   0.53442   Biso      1.000     C          -0.150541           
         C46       1.0000    0.56494   0.45854   0.45744   Biso      1.000     C          -0.212888           
         C47       1.0000    0.47348   0.04997   0.02548   Biso      1.000     C          -0.112378           
         C48       1.0000    0.45484   0.12801   0.02650   Biso      1.000     C          -0.027544           
         C49       1.0000    0.38223   0.15794   0.06573   Biso      1.000     C          -0.175237           
         C50       1.0000    0.33026   0.11264   0.10306   Biso      1.000     C          0.083191  
         C51       1.0000    0.35059   0.03503   0.10289   Biso      1.000     C          -0.1325   
         C52       1.0000    0.51179   0.17622   0.98446   Biso      1.000     C          0.576706  
         C53       1.0000    0.25258   0.14767   0.14283   Biso      1.000     C          0.0914    
         C54       1.0000    0.21478   0.21861   0.11002   Biso      1.000     C          -0.214567           
         C55       1.0000    0.42165   0.00400   0.06322   Biso      1.000     C          -0.009963           
         C56       1.0000    0.53553   0.72101   0.17392   Biso      1.000     C          0.623263  
         C57       1.0000    0.65437   0.66223   0.22735   Biso      1.000     C          -0.135895           
         C58       1.0000    0.69001   0.61044   0.28058   Biso      1.000     C          0.010907  
         C59       1.0000    0.65009   0.56569   0.34119   Biso      1.000     C          -0.165116           
         C60       1.0000    0.57174   0.57362   0.35296   Biso      1.000     C          0.077064  
         C61       1.0000    0.53442   0.62684   0.29698   Biso      1.000     C          -0.150553           
         C62       1.0000    0.52987   0.53110   0.42238   Biso      1.000     C          0.092425  
         C63       1.0000    0.45744   0.56494   0.45854   Biso      1.000     C          -0.212888           
         C64       1.0000    0.77481   0.60031   0.27521   Biso      1.000     C          0.561813  
         C65       1.0000    0.57461   0.66814   0.23526   Biso      1.000     C          -0.026555           
         C66       1.0000    0.44255   0.91966   0.05916   Biso      1.000     C          0.627993  
         C67       1.0000    0.27521   0.77481   0.60031   Biso      1.000     C          0.561813  
         C68       1.0000    0.45854   0.45744   0.56494   Biso      1.000     C          -0.212888           
         C69       1.0000    0.60031   0.27521   0.77481   Biso      1.000     C          0.561813  
         C70       1.0000    0.05916   0.44255   0.91966   Biso      1.000     C          0.627993  
         C71       1.0000    0.06322   0.42165   0.00400   Biso      1.000     C          -0.009965           
         C72       1.0000    0.02548   0.47348   0.04997   Biso      1.000     C          -0.112376           
         C73       1.0000    0.02650   0.45484   0.12801   Biso      1.000     C          -0.027544           
         C74       1.0000    0.06573   0.38223   0.15794   Biso      1.000     C          -0.175237           
         C75       1.0000    0.10306   0.33026   0.11264   Biso      1.000     C          0.083191  
         C76       1.0000    0.10289   0.35059   0.03503   Biso      1.000     C          -0.1325   
         C77       1.0000    0.98446   0.51179   0.17622   Biso      1.000     C          0.576706  
         C78       1.0000    0.14283   0.25258   0.14767   Biso      1.000     C          0.091399  
         C79       1.0000    0.11002   0.21478   0.21861   Biso      1.000     C          -0.214567           
         C80       1.0000    0.17392   0.53553   0.72101   Biso      1.000     C          0.623264  
         C81       1.0000    0.23526   0.57461   0.66814   Biso      1.000     C          -0.026568           
         C82       1.0000    0.22735   0.65437   0.66223   Biso      1.000     C          -0.135894           
         C83       1.0000    0.28058   0.69001   0.61044   Biso      1.000     C          0.010907  
         C84       1.0000    0.34119   0.65009   0.56569   Biso      1.000     C          -0.165116           
         C85       1.0000    0.35296   0.57174   0.57362   Biso      1.000     C          0.077063  
         C86       1.0000    0.29698   0.53442   0.62684   Biso      1.000     C          -0.150541           
         C87       1.0000    0.42238   0.52987   0.53110   Biso      1.000     C          0.092426  
         C88       1.0000    0.53110   0.42238   0.52987   Biso      1.000     C          0.092426  
         C89       1.0000    0.03553   0.67392   0.22101   Biso      1.000     C          0.623263  
         C90       1.0000    0.95744   0.95854   0.06494   Biso      1.000     C          -0.212887           
         C91       1.0000    0.75258   0.64283   0.64767   Biso      1.000     C          0.091399  
         C92       1.0000    0.55916   0.41966   0.94255   Biso      1.000     C          0.627993  
         C93       1.0000    0.56322   0.50400   0.92165   Biso      1.000     C          -0.009965           
         C94       1.0000    0.52548   0.54997   0.97348   Biso      1.000     C          -0.112376           
         C95       1.0000    0.52650   0.62801   0.95484   Biso      1.000     C          -0.027544           
         C96       1.0000    0.60306   0.61264   0.83026   Biso      1.000     C          0.08319   
         C97       1.0000    0.60289   0.53503   0.85059   Biso      1.000     C          -0.1325   
         C98       1.0000    0.48446   0.67622   0.01179   Biso      1.000     C          0.576705  
         C99       1.0000    0.64283   0.64767   0.75258   Biso      1.000     C          0.091399  
         C100      1.0000    0.61002   0.71861   0.71478   Biso      1.000     C          -0.214568           
         C101      1.0000    0.67392   0.22101   0.03553   Biso      1.000     C          0.623264  
         C102      1.0000    0.73526   0.16814   0.07461   Biso      1.000     C          -0.026568           
         C103      1.0000    0.72735   0.16223   0.15437   Biso      1.000     C          -0.135893           
         C104      1.0000    0.78058   0.11044   0.19001   Biso      1.000     C          0.010907  
         C105      1.0000    0.84119   0.06569   0.15009   Biso      1.000     C          -0.165115           
         C106      1.0000    0.56573   0.65794   0.88223   Biso      1.000     C          -0.175236           
         C107      1.0000    0.79698   0.12684   0.03442   Biso      1.000     C          -0.150541           
         C108      1.0000    0.85296   0.07362   0.07174   Biso      1.000     C          0.077063  
         C109      1.0000    0.01179   0.48446   0.67622   Biso      1.000     C          0.576706  
         C110      1.0000    0.85059   0.60289   0.53503   Biso      1.000     C          -0.1325   
         C111      1.0000    0.83026   0.60306   0.61264   Biso      1.000     C          0.08319   
         C112      1.0000    0.88223   0.56573   0.65794   Biso      1.000     C          -0.175236           
         C113      1.0000    0.95484   0.52650   0.62801   Biso      1.000     C          -0.027543           
         C114      1.0000    0.97348   0.52548   0.54997   Biso      1.000     C          -0.112379           
         C115      1.0000    0.71478   0.61002   0.71861   Biso      1.000     C          -0.214567           
         C116      1.0000    0.92165   0.56322   0.50400   Biso      1.000     C          -0.009963           
         C117      1.0000    0.94255   0.55916   0.41966   Biso      1.000     C          0.627993  
         C118      1.0000    0.77521   0.10031   0.27481   Biso      1.000     C          0.561814  
         C119      1.0000    0.95854   0.06494   0.95744   Biso      1.000     C          -0.212888           
         C120      1.0000    0.92238   0.03110   0.02987   Biso      1.000     C          0.092425  
         H1        1.0000    0.13360   0.98090   0.80270   Biso      1.000     H          0.13111   
         H2        1.0000    0.02830   0.17710   0.87590   Biso      1.000     H          0.136329  
         H3        1.0000    0.19350   0.18180   0.68620   Biso      1.000     H          0.130852  
         H4        1.0000    0.74450   0.73770   0.56160   Biso      1.000     H          0.129745  
         H5        1.0000    0.50300   0.81570   0.63000   Biso      1.000     H          0.13109   
         H6        1.0000    0.71070   0.86860   0.56650   Biso      1.000     H          0.103768  
         H7        1.0000    0.52860   0.02200   0.49860   Biso      1.000     H          0.12782   
         H8        1.0000    0.93170   0.93360   0.11220   Biso      1.000     H          0.139231  
         H9        1.0000    0.98090   0.80270   0.13360   Biso      1.000     H          0.13111   
         H10       1.0000    0.17710   0.87590   0.02830   Biso      1.000     H          0.136329  
         H11       1.0000    0.18180   0.68620   0.19350   Biso      1.000     H          0.130853  
         H12       1.0000    0.81570   0.63000   0.50300   Biso      1.000     H          0.13109   
         H13       1.0000    0.56650   0.71070   0.86860   Biso      1.000     H          0.103768  
         H14       1.0000    0.86860   0.56650   0.71070   Biso      1.000     H          0.103768  
         H15       1.0000    0.02200   0.49860   0.52860   Biso      1.000     H          0.12782   
         H16       1.0000    0.93360   0.11220   0.93170   Biso      1.000     H          0.139231  
         H17       1.0000    0.80270   0.13360   0.98090   Biso      1.000     H          0.131109  
         H18       1.0000    0.68620   0.19350   0.18180   Biso      1.000     H          0.130853  
         H19       1.0000    0.56160   0.74450   0.73770   Biso      1.000     H          0.129744  
         H20       1.0000    0.63000   0.50300   0.81570   Biso      1.000     H          0.13109   
         H21       1.0000    0.49860   0.52860   0.02200   Biso      1.000     H          0.12782   
         H22       1.0000    0.11220   0.93170   0.93360   Biso      1.000     H          0.139231  
         H23       1.0000    0.73770   0.56160   0.74450   Biso      1.000     H          0.129744  
         H24       1.0000    0.87590   0.02830   0.17710   Biso      1.000     H          0.136329  
         H25       1.0000    0.21070   0.06650   0.36860   Biso      1.000     H          0.103768  
         H26       1.0000    0.00300   0.13000   0.31570   Biso      1.000     H          0.13109   
         H27       1.0000    0.02860   0.99860   0.52200   Biso      1.000     H          0.12782   
         H28       1.0000    0.43170   0.61220   0.43360   Biso      1.000     H          0.139231  
         H29       1.0000    0.48090   0.63360   0.30270   Biso      1.000     H          0.13111   
         H30       1.0000    0.67710   0.52830   0.37590   Biso      1.000     H          0.136329  
         H31       1.0000    0.68180   0.69350   0.18620   Biso      1.000     H          0.130853  
         H32       1.0000    0.31570   0.00300   0.13000   Biso      1.000     H          0.13109   
         H33       1.0000    0.36860   0.21070   0.06650   Biso      1.000     H          0.103768  
         H34       1.0000    0.52200   0.02860   0.99860   Biso      1.000     H          0.12782   
         H35       1.0000    0.43360   0.43170   0.61220   Biso      1.000     H          0.139231  
         H36       1.0000    0.30270   0.48090   0.63360   Biso      1.000     H          0.13111   
         H37       1.0000    0.23770   0.24450   0.06160   Biso      1.000     H          0.129744  
         H38       1.0000    0.18620   0.68180   0.69350   Biso      1.000     H          0.130853  
         H39       1.0000    0.06160   0.23770   0.24450   Biso      1.000     H          0.129744  
         H40       1.0000    0.13000   0.31570   0.00300   Biso      1.000     H          0.13109   
         H41       1.0000    0.06650   0.36860   0.21070   Biso      1.000     H          0.103768  
         H42       1.0000    0.99860   0.52200   0.02860   Biso      1.000     H          0.12782   
         H43       1.0000    0.61220   0.43360   0.43170   Biso      1.000     H          0.139231  
         H44       1.0000    0.63360   0.30270   0.48090   Biso      1.000     H          0.13111   
         H45       1.0000    0.52830   0.37590   0.67710   Biso      1.000     H          0.136329  
         H46       1.0000    0.69350   0.18620   0.68180   Biso      1.000     H          0.130853  
         H47       1.0000    0.37590   0.67710   0.52830   Biso      1.000     H          0.13633   
         H48       1.0000    0.24450   0.06160   0.23770   Biso      1.000     H          0.129744  
         O1        1.0000    0.53739   0.30217   0.81161   Biso      1.000     O          -0.533845           
         O2        1.0000    0.65791   0.24453   0.80492   Biso      1.000     O          -0.521209           
         O3        1.0000    0.24490   0.99162   0.50018   Biso      1.000     O          -0.571223           
         O4        1.0000    0.14870   0.94139   0.57074   Biso      1.000     O          -0.455509           
         O5        1.0000    0.89893   0.01410   0.50309   Biso      1.000     O          -0.574331           
         O6        1.0000    0.15791   0.30492   0.74453   Biso      1.000     O          -0.521208           
         O7        1.0000    0.25953   0.07421   0.61964   Biso      1.000     O          -0.591198           
         O8        1.0000    0.22105   0.96613   0.68262   Biso      1.000     O          -0.501963           
         O9        1.0000    0.03739   0.31161   0.80217   Biso      1.000     O          -0.533845           
         O10       1.0000    0.74490   0.00018   0.49162   Biso      1.000     O          -0.571225           
         O11       1.0000    0.72105   0.18262   0.46613   Biso      1.000     O          -0.501963           
         O12       1.0000    0.87908   0.09913   0.39636   Biso      1.000     O          -0.51022  
         O13       1.0000    0.75953   0.11964   0.57421   Biso      1.000     O          -0.591199           
         O14       1.0000    0.24453   0.80492   0.65791   Biso      1.000     O          -0.521209           
         O15       1.0000    0.01410   0.50309   0.89893   Biso      1.000     O          -0.57433  
         O16       1.0000    0.81161   0.53739   0.30217   Biso      1.000     O          -0.533844           
         O17       1.0000    0.80492   0.65791   0.24453   Biso      1.000     O          -0.521208           
         O18       1.0000    0.50018   0.24490   0.99162   Biso      1.000     O          -0.571223           
         O19       1.0000    0.57074   0.14870   0.94139   Biso      1.000     O          -0.45551  
         O20       1.0000    0.50309   0.89893   0.01410   Biso      1.000     O          -0.574329           
         O21       1.0000    0.39636   0.87908   0.09913   Biso      1.000     O          -0.510219           
         O22       1.0000    0.11964   0.57421   0.75953   Biso      1.000     O          -0.591198           
         O23       1.0000    0.18262   0.46613   0.72105   Biso      1.000     O          -0.501963           
         O24       1.0000    0.30217   0.81161   0.53739   Biso      1.000     O          -0.533845           
         O25       1.0000    0.99162   0.50018   0.24490   Biso      1.000     O          -0.571224           
         O26       1.0000    0.64870   0.07074   0.44139   Biso      1.000     O          -0.455509           
         O27       1.0000    0.94139   0.57074   0.14870   Biso      1.000     O          -0.45551  
         O28       1.0000    0.09913   0.39636   0.87908   Biso      1.000     O          -0.510219           
         O29       1.0000    0.39893   0.00309   0.51410   Biso      1.000     O          -0.57433  
         O30       1.0000    0.57421   0.75953   0.11964   Biso      1.000     O          -0.591197           
         O31       1.0000    0.07421   0.61964   0.25953   Biso      1.000     O          -0.591198           
         O32       1.0000    0.46613   0.72105   0.18262   Biso      1.000     O          -0.501963           
         O33       1.0000    0.59913   0.37908   0.89636   Biso      1.000     O          -0.51022  
         O34       1.0000    0.37908   0.89636   0.59913   Biso      1.000     O          -0.51022  
         O35       1.0000    0.44139   0.64870   0.07074   Biso      1.000     O          -0.455509           
         O36       1.0000    0.49162   0.74490   0.00018   Biso      1.000     O          -0.571223           
         O37       1.0000    0.74453   0.15791   0.30492   Biso      1.000     O          -0.521209           
         O38       1.0000    0.80217   0.03739   0.31161   Biso      1.000     O          -0.533846           
         O39       1.0000    0.68262   0.22105   0.96613   Biso      1.000     O          -0.501963           
         O40       1.0000    0.51410   0.39893   0.00309   Biso      1.000     O          -0.574329           
         O41       1.0000    0.89636   0.59913   0.37908   Biso      1.000     O          -0.51022  
         O42       1.0000    0.00309   0.51410   0.39893   Biso      1.000     O          -0.57433  
         O43       1.0000    0.07074   0.44139   0.64870   Biso      1.000     O          -0.455509           
         O44       1.0000    0.00018   0.49162   0.74490   Biso      1.000     O          -0.571224           
         O45       1.0000    0.30492   0.74453   0.15791   Biso      1.000     O          -0.521208           
         O46       1.0000    0.31161   0.80217   0.03739   Biso      1.000     O          -0.533845           
         O47       1.0000    0.96613   0.68262   0.22105   Biso      1.000     O          -0.501963           
         O48       1.0000    0.61964   0.25953   0.07421   Biso      1.000     O          -0.591197           
         Zn1       1.0000    0.59889   0.26773   0.90970   Biso      1.000     Zn          0.919841  
         Zn2       1.0000    0.08057   0.50242   0.29842   Biso      1.000     Zn          0.928146  
         Zn3       1.0000    0.90970   0.59889   0.26773   Biso      1.000     Zn          0.91984   
         Zn4       1.0000    0.29842   0.08057   0.50242   Biso      1.000     Zn          0.928145  
         Zn5       1.0000    0.26773   0.90970   0.59889   Biso      1.000     Zn          0.919841  
         Zn6       1.0000    0.09889   0.40970   0.76773   Biso      1.000     Zn          0.91984   
         Zn7       1.0000    0.76773   0.09889   0.40970   Biso      1.000     Zn          0.91984   
         Zn8       1.0000    0.00242   0.58057   0.79842   Biso      1.000     Zn          0.928146  
         Zn9       1.0000    0.58057   0.79842   0.00242   Biso      1.000     Zn          0.928144  
         Zn10      1.0000    0.40970   0.76773   0.09889   Biso      1.000     Zn          0.91984   
         Zn11      1.0000    0.79842   0.00242   0.58057   Biso      1.000     Zn          0.92815   
         Zn12      1.0000    0.50242   0.29842   0.08057   Biso      1.000     Zn          0.928144 