
##########################################################################
#               Crystallographic Information Format file
#               Produced by PyCifRW module
#
#  This is a CIF file.  CIF has been adopted by the International
#  Union of Crystallography as the standard for data archiving and
#  transmission.
#
#  For information on this file format, follow the CIF links at
#  http://www.iucr.org
##########################################################################

data_image0

_cell_length_a                          18.163
_cell_length_b                          19.9369
_cell_length_c                          19.9369
_cell_angle_alpha                       109.07
_cell_angle_beta                        108.003
_cell_angle_gamma                       71.9969
_symmetry_space_group_name_H-M          'P 1'
_symmetry_int_tables_number             1
loop_
  _symmetry_equiv_pos_as_xyz
         'x, y, z' 
loop_
  _atom_site_label
  _atom_site_occupancy
  _atom_site_fract_x
  _atom_site_fract_y
  _atom_site_fract_z
  _atom_site_thermal_displace_type
  _atom_site_B_iso_or_equiv
  _atom_site_type_symbol
  _atom_site_charge
         C1        1.0000    0.44340   0.69430   0.71830   Biso      1.000     C          -0.177279           
         C2        1.0000    0.01100   0.76690   0.80250   Biso      1.000     C          -0.158992           
         C3        1.0000    0.07860   0.72840   0.83800   Biso      1.000     C          0.016495  
         C4        1.0000    0.13880   0.68190   0.80110   Biso      1.000     C          -0.127277           
         C5        1.0000    0.12590   0.67770   0.72850   Biso      1.000     C          -0.003362           
         C6        1.0000    0.05660   0.71830   0.69430   Biso      1.000     C          -0.17728  
         C7        1.0000    0.99630   0.76160   0.73120   Biso      1.000     C          0.092565  
         C8        1.0000    0.70970   0.59550   0.39630   Biso      1.000     C          0.583428  
         C9        1.0000    0.65690   0.83610   0.33890   Biso      1.000     C          0.637147  
         C10       1.0000    0.76140   0.70110   0.49170   Biso      1.000     C          -0.159607           
         C11       1.0000    0.72080   0.67390   0.41930   Biso      1.000     C          -0.005138           
         C12       1.0000    0.68890   0.71880   0.37040   Biso      1.000     C          -0.145346           
         C13       1.0000    0.69500   0.79040   0.39260   Biso      1.000     C          -0.021793           
         C14       1.0000    0.08970   0.73200   0.91760   Biso      1.000     C          0.541632  
         C15       1.0000    0.73300   0.81800   0.46420   Biso      1.000     C          -0.158513           
         C16       1.0000    0.88150   0.87140   0.72700   Biso      1.000     C          -0.218433           
         C17       1.0000    0.92130   0.80110   0.69070   Biso      1.000     C          0.0894    
         C18       1.0000    0.88100   0.77270   0.62210   Biso      1.000     C          -0.208197           
         C19       1.0000    0.80560   0.80750   0.58730   Biso      1.000     C          0.100501  
         C20       1.0000    0.77280   0.87420   0.62520   Biso      1.000     C          -0.20828  
         C21       1.0000    0.80840   0.90890   0.69690   Biso      1.000     C          0.088098  
         C22       1.0000    0.56140   0.07940   0.76980   Biso      1.000     C          0.634575  
         C23       1.0000    0.81050   0.03000   0.77980   Biso      1.000     C          -0.172904           
         C24       1.0000    0.76890   0.97830   0.73850   Biso      1.000     C          0.100275  
         C25       1.0000    0.68790   0.99530   0.73530   Biso      1.000     C          -0.144494           
         C26       1.0000    0.65250   0.06300   0.77500   Biso      1.000     C          -0.014057           
         C27       1.0000    0.69870   0.11390   0.81730   Biso      1.000     C          -0.120071           
         C28       1.0000    0.76480   0.77520   0.51360   Biso      1.000     C          0.082508  
         C29       1.0000    0.77790   0.09810   0.82150   Biso      1.000     C          -0.024307           
         C30       1.0000    0.18840   0.62850   0.68850   Biso      1.000     C          0.580603  
         C31       1.0000    0.72210   0.82150   0.09810   Biso      1.000     C          -0.024333           
         C32       1.0000    0.48900   0.80250   0.76690   Biso      1.000     C          -0.159    
         C33       1.0000    0.42140   0.83800   0.72840   Biso      1.000     C          0.016503  
         C34       1.0000    0.36120   0.80110   0.68190   Biso      1.000     C          -0.127283           
         C35       1.0000    0.37410   0.72850   0.67770   Biso      1.000     C          -0.003359           
         C36       1.0000    0.18050   0.84490   0.13390   Biso      1.000     C          0.590637  
         C37       1.0000    0.50370   0.73120   0.76160   Biso      1.000     C          0.092571  
         C38       1.0000    0.79030   0.39630   0.59550   Biso      1.000     C          0.583444  
         C39       1.0000    0.84310   0.33890   0.83610   Biso      1.000     C          0.63715   
         C40       1.0000    0.73860   0.49170   0.70110   Biso      1.000     C          -0.159613           
         C41       1.0000    0.77920   0.41930   0.67390   Biso      1.000     C          -0.005139           
         C42       1.0000    0.81110   0.37040   0.71880   Biso      1.000     C          -0.145336           
         C43       1.0000    0.80500   0.39260   0.79040   Biso      1.000     C          -0.021805           
         C44       1.0000    0.68050   0.86610   0.15510   Biso      1.000     C          0.590659  
         C45       1.0000    0.76700   0.46420   0.81800   Biso      1.000     C          -0.158493           
         C46       1.0000    0.61850   0.72700   0.87140   Biso      1.000     C          -0.218408           
         C47       1.0000    0.57870   0.69070   0.80110   Biso      1.000     C          0.089379  
         C48       1.0000    0.61900   0.62210   0.77270   Biso      1.000     C          -0.208199           
         C49       1.0000    0.69440   0.58730   0.80750   Biso      1.000     C          0.100507  
         C50       1.0000    0.72720   0.62520   0.87420   Biso      1.000     C          -0.208281           
         C51       1.0000    0.69160   0.69690   0.90890   Biso      1.000     C          0.088093  
         C52       1.0000    0.93860   0.76980   0.07940   Biso      1.000     C          0.63458   
         C53       1.0000    0.68950   0.77980   0.03000   Biso      1.000     C          -0.17289  
         C54       1.0000    0.73110   0.73850   0.97830   Biso      1.000     C          0.100239  
         C55       1.0000    0.81210   0.73530   0.99530   Biso      1.000     C          -0.144462           
         C56       1.0000    0.84750   0.77500   0.06300   Biso      1.000     C          -0.014067           
         C57       1.0000    0.80130   0.81730   0.11390   Biso      1.000     C          -0.12003  
         C58       1.0000    0.73520   0.51360   0.77520   Biso      1.000     C          0.082505  
         C59       1.0000    0.81950   0.15510   0.86610   Biso      1.000     C          0.590635  
         C60       1.0000    0.22210   0.90190   0.17850   Biso      1.000     C          -0.024321           
         C61       1.0000    0.30130   0.88610   0.18270   Biso      1.000     C          -0.120058           
         C62       1.0000    0.18790   0.26470   0.00470   Biso      1.000     C          -0.144463           
         C63       1.0000    0.26890   0.26150   0.02170   Biso      1.000     C          0.100232  
         C64       1.0000    0.31050   0.22020   0.97000   Biso      1.000     C          -0.172881           
         C65       1.0000    0.06140   0.23020   0.92060   Biso      1.000     C          0.63458   
         C66       1.0000    0.30840   0.30310   0.09110   Biso      1.000     C          0.08809   
         C67       1.0000    0.27280   0.37480   0.12580   Biso      1.000     C          -0.208301           
         C68       1.0000    0.30560   0.41270   0.19250   Biso      1.000     C          0.100526  
         C69       1.0000    0.38100   0.37790   0.22730   Biso      1.000     C          -0.208208           
         C70       1.0000    0.42130   0.30930   0.19890   Biso      1.000     C          0.089388  
         C71       1.0000    0.38150   0.27300   0.12860   Biso      1.000     C          -0.218403           
         C72       1.0000    0.26480   0.48640   0.22480   Biso      1.000     C          0.082503  
         C73       1.0000    0.23300   0.53580   0.18200   Biso      1.000     C          -0.158492           
         C74       1.0000    0.15250   0.22500   0.93700   Biso      1.000     C          -0.014065           
         C75       1.0000    0.19500   0.60740   0.20960   Biso      1.000     C          -0.021808           
         C76       1.0000    0.22080   0.58070   0.32610   Biso      1.000     C          -0.00514  
         C77       1.0000    0.26140   0.50830   0.29890   Biso      1.000     C          -0.159612           
         C78       1.0000    0.15690   0.66110   0.16390   Biso      1.000     C          0.63715   
         C79       1.0000    0.20970   0.60370   0.40450   Biso      1.000     C          0.583444  
         C80       1.0000    0.49630   0.26880   0.23840   Biso      1.000     C          0.092541  
         C81       1.0000    0.55660   0.30570   0.28170   Biso      1.000     C          -0.177275           
         C82       1.0000    0.62590   0.27150   0.32230   Biso      1.000     C          -0.003363           
         C83       1.0000    0.63880   0.19890   0.31810   Biso      1.000     C          -0.127279           
         C84       1.0000    0.57860   0.16200   0.27160   Biso      1.000     C          0.016484  
         C85       1.0000    0.51100   0.19750   0.23310   Biso      1.000     C          -0.158954           
         C86       1.0000    0.58970   0.08240   0.26800   Biso      1.000     C          0.54165   
         C87       1.0000    0.68840   0.31150   0.37150   Biso      1.000     C          0.580604  
         C88       1.0000    0.18890   0.62960   0.28120   Biso      1.000     C          -0.145333           
         C89       1.0000    0.19870   0.18270   0.88610   Biso      1.000     C          -0.120043           
         C90       1.0000    0.27790   0.17850   0.90190   Biso      1.000     C          -0.024321           
         C91       1.0000    0.31950   0.13390   0.84490   Biso      1.000     C          0.590658  
         C92       1.0000    0.34750   0.93700   0.22500   Biso      1.000     C          -0.014058           
         C93       1.0000    0.31210   0.00470   0.26470   Biso      1.000     C          -0.144495           
         C94       1.0000    0.23110   0.02170   0.26150   Biso      1.000     C          0.100268  
         C95       1.0000    0.18950   0.97000   0.22020   Biso      1.000     C          -0.172892           
         C96       1.0000    0.43860   0.92060   0.23020   Biso      1.000     C          0.634575  
         C97       1.0000    0.19160   0.09110   0.30310   Biso      1.000     C          0.088096  
         C98       1.0000    0.22720   0.12580   0.37480   Biso      1.000     C          -0.208299           
         C99       1.0000    0.19440   0.19250   0.41270   Biso      1.000     C          0.100521  
         C100      1.0000    0.11900   0.22730   0.37790   Biso      1.000     C          -0.208206           
         C101      1.0000    0.07870   0.19890   0.30930   Biso      1.000     C          0.089408  
         C102      1.0000    0.11850   0.12860   0.27300   Biso      1.000     C          -0.218428           
         C103      1.0000    0.23520   0.22480   0.48640   Biso      1.000     C          0.082507  
         C104      1.0000    0.26700   0.18200   0.53580   Biso      1.000     C          -0.158512           
         C105      1.0000    0.30500   0.20960   0.60740   Biso      1.000     C          -0.021796           
         C106      1.0000    0.31110   0.28120   0.62960   Biso      1.000     C          -0.145343           
         C107      1.0000    0.27920   0.32610   0.58070   Biso      1.000     C          -0.005139           
         C108      1.0000    0.23860   0.29890   0.50830   Biso      1.000     C          -0.159607           
         C109      1.0000    0.34310   0.16390   0.66110   Biso      1.000     C          0.637147  
         C110      1.0000    0.29030   0.40450   0.60370   Biso      1.000     C          0.583428  
         C111      1.0000    0.00370   0.23840   0.26880   Biso      1.000     C          0.092536  
         C112      1.0000    0.94340   0.28170   0.30570   Biso      1.000     C          -0.177277           
         C113      1.0000    0.87410   0.32230   0.27150   Biso      1.000     C          -0.003365           
         C114      1.0000    0.86120   0.31810   0.19890   Biso      1.000     C          -0.127272           
         C115      1.0000    0.92140   0.27160   0.16200   Biso      1.000     C          0.016476  
         C116      1.0000    0.98900   0.23310   0.19750   Biso      1.000     C          -0.158946           
         C117      1.0000    0.91030   0.26800   0.08240   Biso      1.000     C          0.541634  
         C118      1.0000    0.81160   0.37150   0.31150   Biso      1.000     C          0.580603  
         C119      1.0000    0.41030   0.91760   0.73200   Biso      1.000     C          0.541649  
         C120      1.0000    0.31160   0.68850   0.62850   Biso      1.000     C          0.580604  
         Cd1       1.0000    0.89968   0.26249   0.94515   Biso      1.000     Cd          0.987699  
         Cd2       1.0000    0.10032   0.73751   0.05485   Biso      1.000     Cd          0.987699  
         Cd3       1.0000    0.16522   0.65321   0.53167   Biso      1.000     Cd          1.02665   
         Cd4       1.0000    0.39968   0.05485   0.73751   Biso      1.000     Cd          0.987706  
         Cd5       1.0000    0.33478   0.53167   0.65321   Biso      1.000     Cd          1.02665   
         Cd6       1.0000    0.06511   0.84254   0.22914   Biso      1.000     Cd          1.041496  
         Cd7       1.0000    0.43489   0.22914   0.84254   Biso      1.000     Cd          1.041495  
         Cd8       1.0000    0.56511   0.77086   0.15746   Biso      1.000     Cd          1.041496  
         Cd9       1.0000    0.60032   0.94515   0.26249   Biso      1.000     Cd          0.987706  
         Cd10      1.0000    0.66522   0.46833   0.34679   Biso      1.000     Cd          1.02665   
         Cd11      1.0000    0.93489   0.15746   0.77086   Biso      1.000     Cd          1.041496  
         Cd12      1.0000    0.83478   0.34679   0.46833   Biso      1.000     Cd          1.02665   
         H1        1.0000    0.04960   0.71720   0.64580   Biso      1.000     H          0.099418  
         H2        1.0000    0.77630   0.60260   0.89880   Biso      1.000     H          0.118061  
         H3        1.0000    0.63580   0.78010   0.01930   Biso      1.000     H          0.100236  
         H4        1.0000    0.84260   0.70680   0.96160   Biso      1.000     H          0.132964  
         H5        1.0000    0.82550   0.84280   0.15940   Biso      1.000     H          0.124886  
         H6        1.0000    0.97340   0.79790   0.82850   Biso      1.000     H          0.136932  
         H7        1.0000    0.18520   0.65540   0.82540   Biso      1.000     H          0.139719  
         H8        1.0000    0.78510   0.67120   0.52360   Biso      1.000     H          0.137033  
         H9        1.0000    0.72370   0.89880   0.60260   Biso      1.000     H          0.118061  
         H10       1.0000    0.73720   0.86630   0.47950   Biso      1.000     H          0.126746  
         H11       1.0000    0.90690   0.89290   0.77390   Biso      1.000     H          0.122674  
         H12       1.0000    0.90500   0.72720   0.59660   Biso      1.000     H          0.11318   
         H13       1.0000    0.59500   0.59660   0.72720   Biso      1.000     H          0.113181  
         H14       1.0000    0.86420   0.01930   0.78010   Biso      1.000     H          0.100233  
         H15       1.0000    0.65740   0.96160   0.70680   Biso      1.000     H          0.132965  
         H16       1.0000    0.67450   0.15940   0.84280   Biso      1.000     H          0.124914  
         H17       1.0000    0.66340   0.69980   0.32260   Biso      1.000     H          0.112773  
         H18       1.0000    0.59310   0.77390   0.89290   Biso      1.000     H          0.122672  
         H19       1.0000    0.47340   0.17150   0.20210   Biso      1.000     H          0.13693   
         H20       1.0000    0.83660   0.32260   0.69980   Biso      1.000     H          0.112772  
         H21       1.0000    0.76280   0.47950   0.86630   Biso      1.000     H          0.126731  
         H22       1.0000    0.68520   0.17460   0.34460   Biso      1.000     H          0.139719  
         H23       1.0000    0.54960   0.35420   0.28280   Biso      1.000     H          0.099417  
         H24       1.0000    0.28510   0.47640   0.32880   Biso      1.000     H          0.137034  
         H25       1.0000    0.23720   0.52050   0.13370   Biso      1.000     H          0.126731  
         H26       1.0000    0.40690   0.22610   0.10710   Biso      1.000     H          0.122671  
         H27       1.0000    0.40500   0.40340   0.27280   Biso      1.000     H          0.113182  
         H28       1.0000    0.22370   0.39740   0.10120   Biso      1.000     H          0.118063  
         H29       1.0000    0.36420   0.21990   0.98070   Biso      1.000     H          0.100235  
         H30       1.0000    0.15740   0.29320   0.03840   Biso      1.000     H          0.132964  
         H31       1.0000    0.17450   0.15720   0.84060   Biso      1.000     H          0.124887  
         H32       1.0000    0.02660   0.20210   0.17150   Biso      1.000     H          0.136928  
         H33       1.0000    0.81480   0.34460   0.17460   Biso      1.000     H          0.139718  
         H34       1.0000    0.16340   0.67740   0.30020   Biso      1.000     H          0.112771  
         H35       1.0000    0.21490   0.32880   0.47640   Biso      1.000     H          0.137033  
         H36       1.0000    0.95040   0.28280   0.35420   Biso      1.000     H          0.099418  
         H37       1.0000    0.45040   0.64580   0.71720   Biso      1.000     H          0.099417  
         H38       1.0000    0.31480   0.82540   0.65540   Biso      1.000     H          0.139719  
         H39       1.0000    0.32550   0.84060   0.15720   Biso      1.000     H          0.124913  
         H40       1.0000    0.34260   0.03840   0.29320   Biso      1.000     H          0.132965  
         H41       1.0000    0.52660   0.82850   0.79790   Biso      1.000     H          0.136934  
         H42       1.0000    0.27630   0.10120   0.39740   Biso      1.000     H          0.118063  
         H43       1.0000    0.33660   0.30020   0.67740   Biso      1.000     H          0.112772  
         H44       1.0000    0.13580   0.98070   0.21990   Biso      1.000     H          0.100232  
         H45       1.0000    0.26280   0.13370   0.52050   Biso      1.000     H          0.126746  
         H46       1.0000    0.09310   0.10710   0.22610   Biso      1.000     H          0.122673  
         H47       1.0000    0.71490   0.52360   0.67120   Biso      1.000     H          0.137034  
         H48       1.0000    0.09500   0.27280   0.40340   Biso      1.000     H          0.11318   
         O1        1.0000    0.46030   0.86080   0.18160   Biso      1.000     O          -0.635962           
         O2        1.0000    0.47840   0.95880   0.27160   Biso      1.000     O          -0.462431           
         O3        1.0000    0.37140   0.19210   0.72370   Biso      1.000     O          -0.629119           
         O4        1.0000    0.31740   0.42940   0.67000   Biso      1.000     O          -0.573799           
         O5        1.0000    0.21080   0.78860   0.09520   Biso      1.000     O          -0.447549           
         O6        1.0000    0.27450   0.43790   0.55830   Biso      1.000     O          -0.531119           
         O7        1.0000    0.94900   0.21150   0.04590   Biso      1.000     O          -0.544877           
         O8        1.0000    0.86200   0.32100   0.05700   Biso      1.000     O          -0.534392           
         O9        1.0000    0.74010   0.39110   0.27130   Biso      1.000     O          -0.533945           
         O10       1.0000    0.33990   0.09960   0.63740   Biso      1.000     O          -0.509736           
         O11       1.0000    0.16010   0.63740   0.09960   Biso      1.000     O          -0.509738           
         O12       1.0000    0.39340   0.13850   0.85550   Biso      1.000     O          -0.603277           
         O13       1.0000    0.28920   0.09520   0.78860   Biso      1.000     O          -0.447562           
         O14       1.0000    0.03970   0.18160   0.86080   Biso      1.000     O          -0.635966           
         O15       1.0000    0.02160   0.27160   0.95880   Biso      1.000     O          -0.462433           
         O16       1.0000    0.12860   0.72370   0.19210   Biso      1.000     O          -0.629113           
         O17       1.0000    0.18260   0.67000   0.42940   Biso      1.000     O          -0.573799           
         O18       1.0000    0.22550   0.55830   0.43790   Biso      1.000     O          -0.531137           
         O19       1.0000    0.55100   0.04590   0.21150   Biso      1.000     O          -0.544897           
         O20       1.0000    0.10660   0.85550   0.13850   Biso      1.000     O          -0.603272           
         O21       1.0000    0.63800   0.05700   0.32100   Biso      1.000     O          -0.53439  
         O22       1.0000    0.83020   0.39640   0.38080   Biso      1.000     O          -0.584107           
         O23       1.0000    0.33020   0.61920   0.60360   Biso      1.000     O          -0.584106           
         O24       1.0000    0.13800   0.67900   0.94300   Biso      1.000     O          -0.534392           
         O25       1.0000    0.36200   0.94300   0.67900   Biso      1.000     O          -0.53439  
         O26       1.0000    0.75990   0.27130   0.39110   Biso      1.000     O          -0.533945           
         O27       1.0000    0.89340   0.14450   0.86150   Biso      1.000     O          -0.603272           
         O28       1.0000    0.78920   0.21140   0.90480   Biso      1.000     O          -0.447549           
         O29       1.0000    0.53970   0.13920   0.81840   Biso      1.000     O          -0.635961           
         O30       1.0000    0.52160   0.04120   0.72840   Biso      1.000     O          -0.462432           
         O31       1.0000    0.66010   0.90040   0.36260   Biso      1.000     O          -0.509736           
         O32       1.0000    0.62860   0.80790   0.27630   Biso      1.000     O          -0.629119           
         O33       1.0000    0.68260   0.57060   0.33000   Biso      1.000     O          -0.573799           
         O34       1.0000    0.72550   0.56210   0.44170   Biso      1.000     O          -0.531119           
         O35       1.0000    0.05100   0.78850   0.95410   Biso      1.000     O          -0.544876           
         O36       1.0000    0.25990   0.60890   0.72870   Biso      1.000     O          -0.533945           
         O37       1.0000    0.16980   0.60360   0.61920   Biso      1.000     O          -0.584107           
         O38       1.0000    0.60660   0.86150   0.14450   Biso      1.000     O          -0.603277           
         O39       1.0000    0.71080   0.90480   0.21140   Biso      1.000     O          -0.447562           
         O40       1.0000    0.96030   0.81840   0.13920   Biso      1.000     O          -0.635966           
         O41       1.0000    0.97840   0.72840   0.04120   Biso      1.000     O          -0.462432           
         O42       1.0000    0.83990   0.36260   0.90040   Biso      1.000     O          -0.509738           
         O43       1.0000    0.87140   0.27630   0.80790   Biso      1.000     O          -0.629113           
         O44       1.0000    0.81740   0.33000   0.57060   Biso      1.000     O          -0.573799           
         O45       1.0000    0.77450   0.44170   0.56210   Biso      1.000     O          -0.531137           
         O46       1.0000    0.44900   0.95410   0.78850   Biso      1.000     O          -0.544897           
         O47       1.0000    0.24010   0.72870   0.60890   Biso      1.000     O          -0.533945           
         O48       1.0000    0.66980   0.38080   0.39640   Biso      1.000     O          -0.584106 