
##########################################################################
#               Crystallographic Information Format file
#               Produced by PyCifRW module
#
#  This is a CIF file.  CIF has been adopted by the International
#  Union of Crystallography as the standard for data archiving and
#  transmission.
#
#  For information on this file format, follow the CIF links at
#  http://www.iucr.org
##########################################################################

data_image0

_cell_length_a                          8.5958
_cell_length_b                          15.8
_cell_length_c                          18.46
_cell_angle_alpha                       90
_cell_angle_beta                        90
_cell_angle_gamma                       90
_symmetry_space_group_name_H-M          'P 1'
_symmetry_int_tables_number             1
loop_
  _symmetry_equiv_pos_as_xyz
         'x, y, z' 
loop_
  _atom_site_label
  _atom_site_occupancy
  _atom_site_fract_x
  _atom_site_fract_y
  _atom_site_fract_z
  _atom_site_thermal_displace_type
  _atom_site_B_iso_or_equiv
  _atom_site_type_symbol
  _atom_site_charge
         C1        1.0000    0.67750   0.18710   0.39706   Biso      1.000     C          -0.054009           
         C2        1.0000    0.72809   0.17376   0.87497   Biso      1.000     C          0.109928  
         C3        1.0000    0.79555   0.30089   0.97011   Biso      1.000     C          -0.063626           
         C4        1.0000    0.83187   0.36901   0.02502   Biso      1.000     C          0.645656  
         C5        1.0000    0.68197   0.10289   0.82366   Biso      1.000     C          0.621294  
         C6        1.0000    0.67750   0.81290   0.10294   Biso      1.000     C          -0.054009           
         C7        1.0000    0.76560   0.72335   0.00805   Biso      1.000     C          0.081477  
         C8        1.0000    0.71030   0.74865   0.15137   Biso      1.000     C          -0.13808499999999999          
         C9        1.0000    0.78970   0.24865   0.84863   Biso      1.000     C          -0.13808499999999999          
         C10       1.0000    0.77191   0.67376   0.12503   Biso      1.000     C          0.10993   
         C11       1.0000    0.66813   0.86901   0.97498   Biso      1.000     C          0.645656  
         C12       1.0000    0.81803   0.60289   0.17634   Biso      1.000     C          0.621294  
         C13       1.0000    0.82250   0.68710   0.60294   Biso      1.000     C          -0.054009           
         C14       1.0000    0.73440   0.77665   0.50805   Biso      1.000     C          0.081477  
         C15       1.0000    0.78970   0.75135   0.65137   Biso      1.000     C          -0.13808499999999999          
         C16       1.0000    0.72809   0.82624   0.62503   Biso      1.000     C          0.10993   
         C17       1.0000    0.79555   0.69911   0.52989   Biso      1.000     C          -0.063624           
         C18       1.0000    0.70445   0.80089   0.02989   Biso      1.000     C          -0.063624           
         C19       1.0000    0.83187   0.63099   0.47498   Biso      1.000     C          0.645655  
         C20       1.0000    0.73440   0.22335   0.99195   Biso      1.000     C          0.081479  
         C21       1.0000    0.81803   0.39711   0.32366   Biso      1.000     C          0.621294  
         C22       1.0000    0.29555   0.19911   0.97011   Biso      1.000     C          -0.063626           
         C23       1.0000    0.33187   0.13099   0.02502   Biso      1.000     C          0.645656  
         C24       1.0000    0.18197   0.39711   0.82366   Biso      1.000     C          0.621294  
         C25       1.0000    0.17750   0.31290   0.39706   Biso      1.000     C          -0.054009           
         C26       1.0000    0.26560   0.22335   0.49195   Biso      1.000     C          0.081477  
         C27       1.0000    0.21030   0.24865   0.34863   Biso      1.000     C          -0.13808499999999999          
         C28       1.0000    0.27191   0.17376   0.37497   Biso      1.000     C          0.10993   
         C29       1.0000    0.82250   0.31290   0.89706   Biso      1.000     C          -0.054007000000000006         
         C30       1.0000    0.20445   0.30089   0.47011   Biso      1.000     C          -0.063624           
         C31       1.0000    0.31803   0.10289   0.32366   Biso      1.000     C          0.621294  
         C32       1.0000    0.23440   0.27665   0.99195   Biso      1.000     C          0.081479  
         C33       1.0000    0.76560   0.27665   0.49195   Biso      1.000     C          0.081477  
         C34       1.0000    0.71030   0.25135   0.34863   Biso      1.000     C          -0.13808499999999999          
         C35       1.0000    0.77191   0.32624   0.37497   Biso      1.000     C          0.10993   
         C36       1.0000    0.70445   0.19911   0.47011   Biso      1.000     C          -0.063624           
         C37       1.0000    0.66813   0.13099   0.52502   Biso      1.000     C          0.645655  
         C38       1.0000    0.16813   0.36901   0.52502   Biso      1.000     C          0.645655  
         C39       1.0000    0.68197   0.89711   0.67634   Biso      1.000     C          0.621294  
         C40       1.0000    0.28970   0.25135   0.84863   Biso      1.000     C          -0.138087           
         C41       1.0000    0.26560   0.77665   0.00805   Biso      1.000     C          0.081477  
         C42       1.0000    0.32250   0.18710   0.89706   Biso      1.000     C          -0.054007000000000006         
         C43       1.0000    0.31803   0.89711   0.17634   Biso      1.000     C          0.621294  
         C44       1.0000    0.16813   0.63099   0.97498   Biso      1.000     C          0.645656  
         C45       1.0000    0.20445   0.69911   0.02989   Biso      1.000     C          -0.063625           
         C46       1.0000    0.27191   0.82624   0.12503   Biso      1.000     C          0.109929  
         C47       1.0000    0.21030   0.75135   0.15137   Biso      1.000     C          -0.13808499999999999          
         C48       1.0000    0.17750   0.68710   0.10294   Biso      1.000     C          -0.054007000000000006         
         C49       1.0000    0.22809   0.32624   0.87497   Biso      1.000     C          0.10993   
         C50       1.0000    0.33187   0.86901   0.47498   Biso      1.000     C          0.645656  
         C51       1.0000    0.29555   0.80089   0.52989   Biso      1.000     C          -0.063626           
         C52       1.0000    0.22809   0.67376   0.62503   Biso      1.000     C          0.109928  
         C53       1.0000    0.28970   0.74865   0.65137   Biso      1.000     C          -0.13808499999999999          
         C54       1.0000    0.23440   0.72335   0.50805   Biso      1.000     C          0.081479  
         C55       1.0000    0.32250   0.81290   0.60294   Biso      1.000     C          -0.054007000000000006         
         C56       1.0000    0.18197   0.60289   0.67634   Biso      1.000     C          0.621294  
         H1        1.0000    0.86260   0.63600   0.61950   Biso      1.000     H          0.116074  
         H2        1.0000    0.80860   0.74440   0.70060   Biso      1.000     H          0.137413  
         H3        1.0000    0.71550   0.78520   0.45900   Biso      1.000     H          0.099856  
         H4        1.0000    0.21550   0.71480   0.45900   Biso      1.000     H          0.099855  
         H5        1.0000    0.69140   0.75560   0.20060   Biso      1.000     H          0.137413  
         H6        1.0000    0.63740   0.86400   0.11950   Biso      1.000     H          0.116074  
         H7        1.0000    0.30860   0.75560   0.70060   Biso      1.000     H          0.137413  
         H8        1.0000    0.13740   0.63600   0.11950   Biso      1.000     H          0.116073  
         H9        1.0000    0.28450   0.78520   0.95900   Biso      1.000     H          0.099856  
         H10       1.0000    0.19140   0.74440   0.20060   Biso      1.000     H          0.137413  
         H11       1.0000    0.36260   0.13600   0.88050   Biso      1.000     H          0.116073  
         H12       1.0000    0.21550   0.28520   0.04100   Biso      1.000     H          0.099855  
         H13       1.0000    0.30860   0.24440   0.79940   Biso      1.000     H          0.137413  
         H14       1.0000    0.78450   0.71480   0.95900   Biso      1.000     H          0.099856  
         H15       1.0000    0.13740   0.36400   0.38050   Biso      1.000     H          0.116074  
         H16       1.0000    0.19140   0.25560   0.29940   Biso      1.000     H          0.137413  
         H17       1.0000    0.63740   0.13600   0.38050   Biso      1.000     H          0.116074  
         H18       1.0000    0.78450   0.28520   0.54100   Biso      1.000     H          0.099856  
         H19       1.0000    0.69140   0.24440   0.29940   Biso      1.000     H          0.137413  
         H20       1.0000    0.86260   0.36400   0.88050   Biso      1.000     H          0.116073  
         H21       1.0000    0.71550   0.21480   0.04100   Biso      1.000     H          0.099855  
         H22       1.0000    0.80860   0.25560   0.79940   Biso      1.000     H          0.137413  
         H23       1.0000    0.28450   0.21480   0.54100   Biso      1.000     H          0.099856  
         H24       1.0000    0.36260   0.86400   0.61950   Biso      1.000     H          0.116073  
         Li1       1.0000    0.60560   0.08205   0.67227   Biso      1.000     Li          0.843375  
         Li2       1.0000    0.08840   0.54440   0.54540   Biso      1.000     Li          0.78061   
         Li3       1.0000    0.58840   0.95560   0.54540   Biso      1.000     Li          0.78061   
         Li4       1.0000    0.89440   0.41795   0.17227   Biso      1.000     Li          0.843375  
         Li5       1.0000    0.91160   0.54440   0.04540   Biso      1.000     Li          0.780609  
         Li6       1.0000    0.60560   0.91795   0.82773   Biso      1.000     Li          0.843375  
         Li7       1.0000    0.58840   0.04440   0.95460   Biso      1.000     Li          0.78061   
         Li8       1.0000    0.91160   0.45560   0.45460   Biso      1.000     Li          0.780609  
         Li9       1.0000    0.89440   0.58205   0.32773   Biso      1.000     Li          0.843375  
         Li10      1.0000    0.41160   0.04440   0.45460   Biso      1.000     Li          0.780609  
         Li11      1.0000    0.10560   0.58205   0.82773   Biso      1.000     Li          0.843375  
         Li12      1.0000    0.08840   0.45560   0.95460   Biso      1.000     Li          0.780609  
         Li13      1.0000    0.39440   0.08205   0.17227   Biso      1.000     Li          0.843375  
         Li14      1.0000    0.41160   0.95560   0.04540   Biso      1.000     Li          0.780609  
         Li15      1.0000    0.10560   0.41795   0.67227   Biso      1.000     Li          0.843375  
         Li16      1.0000    0.39440   0.91795   0.32773   Biso      1.000     Li          0.843375  
         N1        1.0000    0.20164   0.33961   0.94578   Biso      1.000     N          -0.357478           
         N2        1.0000    0.20164   0.66039   0.55422   Biso      1.000     N          -0.357478           
         N3        1.0000    0.29836   0.83961   0.05422   Biso      1.000     N          -0.357477           
         N4        1.0000    0.29836   0.16039   0.44578   Biso      1.000     N          -0.357478           
         N5        1.0000    0.79836   0.33961   0.44578   Biso      1.000     N          -0.357478           
         N6        1.0000    0.70164   0.16039   0.94578   Biso      1.000     N          -0.357478           
         N7        1.0000    0.79836   0.66039   0.05422   Biso      1.000     N          -0.357477           
         N8        1.0000    0.70164   0.83961   0.55422   Biso      1.000     N          -0.357478           
         O1        1.0000    0.29233   0.11469   0.25858   Biso      1.000     O          -0.646897           
         O2        1.0000    0.19333   0.35445   0.58953   Biso      1.000     O          -0.643073           
         O3        1.0000    0.11322   0.43745   0.49963   Biso      1.000     O          -0.763245           
         O4        1.0000    0.11970   0.46125   0.85206   Biso      1.000     O          -0.7692720000000001           
         O5        1.0000    0.20767   0.38531   0.75858   Biso      1.000     O          -0.646897           
         O6        1.0000    0.30667   0.14555   0.08953   Biso      1.000     O          -0.643073           
         O7        1.0000    0.38030   0.96125   0.14794   Biso      1.000     O          -0.7692720000000001           
         O8        1.0000    0.38030   0.03875   0.35206   Biso      1.000     O          -0.7692720000000001           
         O9        1.0000    0.29233   0.88531   0.24142   Biso      1.000     O          -0.646897           
         O10       1.0000    0.19333   0.64555   0.91047   Biso      1.000     O          -0.643073           
         O11       1.0000    0.11322   0.56255   0.00037   Biso      1.000     O          -0.763245           
         O12       1.0000    0.11970   0.53875   0.64794   Biso      1.000     O          -0.7692720000000001           
         O13       1.0000    0.20767   0.61469   0.74142   Biso      1.000     O          -0.646897           
         O14       1.0000    0.38678   0.06255   0.99963   Biso      1.000     O          -0.763245           
         O15       1.0000    0.61322   0.06255   0.49963   Biso      1.000     O          -0.763245           
         O16       1.0000    0.88030   0.53875   0.14794   Biso      1.000     O          -0.7692720000000001           
         O17       1.0000    0.79233   0.38531   0.25858   Biso      1.000     O          -0.646897           
         O18       1.0000    0.88030   0.46125   0.35206   Biso      1.000     O          -0.7692720000000001           
         O19       1.0000    0.88678   0.43745   0.99963   Biso      1.000     O          -0.763245           
         O20       1.0000    0.80667   0.35445   0.08953   Biso      1.000     O          -0.643073           
         O21       1.0000    0.70767   0.11469   0.75858   Biso      1.000     O          -0.646897           
         O22       1.0000    0.61970   0.03875   0.85206   Biso      1.000     O          -0.7692720000000001           
         O23       1.0000    0.61322   0.93745   0.00037   Biso      1.000     O          -0.763245           
         O24       1.0000    0.69333   0.85445   0.91047   Biso      1.000     O          -0.643073           
         O25       1.0000    0.79233   0.61469   0.24142   Biso      1.000     O          -0.646897           
         O26       1.0000    0.30667   0.85445   0.41047   Biso      1.000     O          -0.643073           
         O27       1.0000    0.88678   0.56255   0.50037   Biso      1.000     O          -0.763245           
         O28       1.0000    0.80667   0.64555   0.41047   Biso      1.000     O          -0.643073           
         O29       1.0000    0.70767   0.88531   0.74142   Biso      1.000     O          -0.646897           
         O30       1.0000    0.61970   0.96125   0.64794   Biso      1.000     O          -0.7692720000000001           
         O31       1.0000    0.69333   0.14555   0.58953   Biso      1.000     O          -0.643073           
         O32       1.0000    0.38678   0.93745   0.50037   Biso      1.000     O          -0.763245 