
##########################################################################
#               Crystallographic Information Format file
#               Produced by PyCifRW module
#
#  This is a CIF file.  CIF has been adopted by the International
#  Union of Crystallography as the standard for data archiving and
#  transmission.
#
#  For information on this file format, follow the CIF links at
#  http://www.iucr.org
##########################################################################

data_image0

_cell_length_a                          5.8595
_cell_length_b                          11.5382
_cell_length_c                          11.5382
_cell_angle_alpha                       94.1091
_cell_angle_beta                        101.721
_cell_angle_gamma                       78.2792
_symmetry_space_group_name_H-M          'P 1'
_symmetry_int_tables_number             1
loop_
  _symmetry_equiv_pos_as_xyz
         'x, y, z' 
loop_
  _atom_site_label
  _atom_site_occupancy
  _atom_site_fract_x
  _atom_site_fract_y
  _atom_site_fract_z
  _atom_site_thermal_displace_type
  _atom_site_B_iso_or_equiv
  _atom_site_type_symbol
  _atom_site_charge
         C1        1.0000    0.21340   0.33400   0.13840   Biso      1.000     C          0.53652   
         C2        1.0000    0.17260   0.37360   0.80480   Biso      1.000     C          -0.16509100000000002          
         C3        1.0000    0.97930   0.46430   0.79170   Biso      1.000     C          -0.11707999999999999          
         C4        1.0000    0.99530   0.56500   0.86280   Biso      1.000     C          0.091309  
         C5        1.0000    0.78660   0.66600   0.86160   Biso      1.000     C          0.536758  
         C6        1.0000    0.71340   0.86160   0.66600   Biso      1.000     C          0.535456  
         C7        1.0000    0.50470   0.86280   0.56500   Biso      1.000     C          0.091782  
         C8        1.0000    0.52070   0.79170   0.46430   Biso      1.000     C          -0.11594000000000002          
         C9        1.0000    0.32740   0.80480   0.37360   Biso      1.000     C          -0.161528           
         C10       1.0000    0.11970   0.88820   0.38100   Biso      1.000     C          0.287552  
         C11       1.0000    0.10580   0.95593   0.48911   Biso      1.000     C          0.08294800000000001           
         C12       1.0000    0.00470   0.43500   0.13720   Biso      1.000     C          0.091079  
         C13       1.0000    0.02070   0.53570   0.20830   Biso      1.000     C          -0.11699200000000001          
         C14       1.0000    0.82740   0.62640   0.19520   Biso      1.000     C          -0.16484200000000002          
         C15       1.0000    0.61970   0.61900   0.11180   Biso      1.000     C          0.288966  
         C16       1.0000    0.60580   0.51089   0.04407   Biso      1.000     C          0.083098  
         C17       1.0000    0.28660   0.13840   0.33400   Biso      1.000     C          0.535559  
         C18       1.0000    0.49530   0.13720   0.43500   Biso      1.000     C          0.092178  
         C19       1.0000    0.47930   0.20830   0.53570   Biso      1.000     C          -0.11593099999999999          
         C20       1.0000    0.67260   0.19520   0.62640   Biso      1.000     C          -0.161991           
         C21       1.0000    0.88030   0.11180   0.61900   Biso      1.000     C          0.287173  
         C22       1.0000    0.89420   0.04407   0.51089   Biso      1.000     C          0.082728  
         C23       1.0000    0.38030   0.38100   0.88820   Biso      1.000     C          0.288234  
         C24       1.0000    0.39420   0.48911   0.95593   Biso      1.000     C          0.08315499999999999           
         Cu1       1.0000    0.85151   0.26013   0.99107   Biso      1.000     Cu          0.815133  
         Cu2       1.0000    0.64849   0.99107   0.26013   Biso      1.000     Cu          0.815067  
         Cu3       1.0000    0.14849   0.73987   0.00893   Biso      1.000     Cu          0.812819  
         Cu4       1.0000    0.35151   0.00893   0.73987   Biso      1.000     Cu          0.816113  
         Cu5       1.0000    0.75000   0.99122   0.99122   Biso      1.000     Cu          1.042477  
         Cu6       1.0000    0.25000   0.00878   0.00878   Biso      1.000     Cu          1.037431  
         H1        1.0000    0.34180   0.26330   0.54150   Biso      1.000     H          0.143732  
         H2        1.0000    0.92750   0.09510   0.86150   Biso      1.000     H          0.435721  
         H3        1.0000    0.84180   0.45850   0.73670   Biso      1.000     H          0.142215  
         H4        1.0000    0.16600   0.30520   0.75740   Biso      1.000     H          0.13378800000000002           
         H5        1.0000    0.65820   0.73670   0.45850   Biso      1.000     H          0.143836  
         H6        1.0000    0.33400   0.75740   0.30520   Biso      1.000     H          0.13542   
         H7        1.0000    0.07250   0.90490   0.13850   Biso      1.000     H          0.435946  
         H8        1.0000    0.15820   0.54150   0.26330   Biso      1.000     H          0.142288  
         H9        1.0000    0.83400   0.69480   0.24260   Biso      1.000     H          0.13382   
         H10       1.0000    0.42750   0.13850   0.90490   Biso      1.000     H          0.43638599999999994           
         H11       1.0000    0.57250   0.86150   0.09510   Biso      1.000     H          0.436543  
         H12       1.0000    0.66600   0.24260   0.69480   Biso      1.000     H          0.135226  
         N1        1.0000    0.80360   0.42269   0.06027   Biso      1.000     N          -0.278999           
         N2        1.0000    0.69640   0.06027   0.42269   Biso      1.000     N          -0.277817           
         N3        1.0000    0.30360   0.93973   0.57731   Biso      1.000     N          -0.277301           
         N4        1.0000    0.19640   0.57731   0.93973   Biso      1.000     N          -0.280075           
         O1        1.0000    0.09390   0.20308   0.34098   Biso      1.000     O          -0.488208           
         O2        1.0000    0.32290   0.06670   0.24708   Biso      1.000     O          -0.574207           
         O3        1.0000    0.43320   0.06701   0.90749   Biso      1.000     O          -0.9032030000000001           
         O4        1.0000    0.45300   0.71620   0.10250   Biso      1.000     O          -0.526269           
         O5        1.0000    0.40610   0.34098   0.20308   Biso      1.000     O          -0.490987           
         O6        1.0000    0.17710   0.24708   0.06670   Biso      1.000     O          -0.576421           
         O7        1.0000    0.06680   0.90749   0.06701   Biso      1.000     O          -0.904791           
         O8        1.0000    0.95300   0.89750   0.28380   Biso      1.000     O          -0.516108           
         O9        1.0000    0.67710   0.93330   0.75292   Biso      1.000     O          -0.573246           
         O10       1.0000    0.56680   0.93299   0.09251   Biso      1.000     O          -0.903071           
         O11       1.0000    0.54700   0.28380   0.89750   Biso      1.000     O          -0.523768           
         O12       1.0000    0.59390   0.65902   0.79692   Biso      1.000     O          -0.49040900000000004          
         O13       1.0000    0.82290   0.75292   0.93330   Biso      1.000     O          -0.5768270000000001           
         O14       1.0000    0.93320   0.09251   0.93299   Biso      1.000     O          -0.904819           
         O15       1.0000    0.90610   0.79692   0.65902   Biso      1.000     O          -0.486897           
         O16       1.0000    0.04700   0.10250   0.71620   Biso      1.000     O          -0.515641 