
##########################################################################
#               Crystallographic Information Format file
#               Produced by PyCifRW module
#
#  This is a CIF file.  CIF has been adopted by the International
#  Union of Crystallography as the standard for data archiving and
#  transmission.
#
#  For information on this file format, follow the CIF links at
#  http://www.iucr.org
##########################################################################

data_image0

_cell_length_a                          7.8366
_cell_length_b                          14.7632
_cell_length_c                          17.4153
_cell_angle_alpha                       90
_cell_angle_beta                        90
_cell_angle_gamma                       95.439
_symmetry_space_group_name_H-M          'P 1'
_symmetry_int_tables_number             1
loop_
  _symmetry_equiv_pos_as_xyz
         'x, y, z' 
loop_
  _atom_site_label
  _atom_site_occupancy
  _atom_site_fract_x
  _atom_site_fract_y
  _atom_site_fract_z
  _atom_site_thermal_displace_type
  _atom_site_B_iso_or_equiv
  _atom_site_type_symbol
  _atom_site_charge
         C1        1.0000    0.96290   0.48954   0.16501   Biso      1.000     C          -0.252902           
         C2        1.0000    0.04900   0.46499   0.43058   Biso      1.000     C          -0.15673900000000002          
         C3        1.0000    0.24730   0.30747   0.56596   Biso      1.000     C          0.326572  
         C4        1.0000    0.53760   0.92292   0.46144   Biso      1.000     C          -0.167954           
         C5        1.0000    0.39350   0.05887   0.29444   Biso      1.000     C          0.337     
         C6        1.0000    0.48070   0.99481   0.41910   Biso      1.000     C          0.094894  
         C7        1.0000    0.52080   0.91613   0.29590   Biso      1.000     C          0.327189  
         C8        1.0000    0.18130   0.33814   0.49734   Biso      1.000     C          -0.253131           
         C9        1.0000    0.08890   0.42068   0.49841   Biso      1.000     C          0.104423  
         C10       1.0000    0.93460   0.00577   0.39587   Biso      1.000     C          -0.154575           
         C11       1.0000    0.92470   0.95328   0.33069   Biso      1.000     C          -0.026008999999999997         
         C12       1.0000    0.49770   0.47307   0.03582   Biso      1.000     C          0.08932899999999999           
         C13       1.0000    0.04280   0.83635   0.39530   Biso      1.000     C          -0.026839           
         C14       1.0000    0.53670   0.95765   0.93188   Biso      1.000     C          -0.162694           
         C15       1.0000    0.05630   0.88644   0.46188   Biso      1.000     C          -0.153102           
         C16       1.0000    0.70470   0.79334   0.07215   Biso      1.000     C          0.332823  
         C17       1.0000    0.99770   0.97307   0.46418   Biso      1.000     C          0.08932999999999999           
         C18       1.0000    0.74730   0.80747   0.93404   Biso      1.000     C          0.326571  
         C19       1.0000    0.03760   0.42292   0.03856   Biso      1.000     C          -0.167954           
         C20       1.0000    0.89350   0.55887   0.20556   Biso      1.000     C          0.337001  
         C21       1.0000    0.98070   0.49481   0.08090   Biso      1.000     C          0.09489500000000001           
         C22       1.0000    0.02080   0.41613   0.20410   Biso      1.000     C          0.32719000000000004           
         C23       1.0000    0.68130   0.83814   0.00266   Biso      1.000     C          -0.253132           
         C24       1.0000    0.94380   0.57240   0.04014   Biso      1.000     C          -0.163733           
         C25       1.0000    0.58890   0.92068   0.00159   Biso      1.000     C          0.104423  
         C26       1.0000    0.20470   0.29334   0.42785   Biso      1.000     C          0.33282   
         C27       1.0000    0.55630   0.38644   0.03812   Biso      1.000     C          -0.153107           
         C28       1.0000    0.06540   0.99423   0.60413   Biso      1.000     C          -0.154575           
         C29       1.0000    0.07530   0.04672   0.66931   Biso      1.000     C          -0.026010000000000002         
         C30       1.0000    0.95720   0.16365   0.60470   Biso      1.000     C          -0.026839           
         C31       1.0000    0.05620   0.42760   0.95986   Biso      1.000     C          -0.163732           
         C32       1.0000    0.46330   0.04235   0.06812   Biso      1.000     C          -0.162694           
         C33       1.0000    0.94370   0.11356   0.53812   Biso      1.000     C          -0.153102           
         C34       1.0000    0.03710   0.51046   0.83499   Biso      1.000     C          -0.252902           
         C35       1.0000    0.29530   0.20666   0.92785   Biso      1.000     C          0.332823  
         C36       1.0000    0.00230   0.02693   0.53582   Biso      1.000     C          0.089331  
         C37       1.0000    0.45100   0.03501   0.93058   Biso      1.000     C          -0.15673800000000002          
         C38       1.0000    0.46290   0.98954   0.33499   Biso      1.000     C          -0.2529   
         C39       1.0000    0.25270   0.19253   0.06596   Biso      1.000     C          0.326571  
         C40       1.0000    0.10650   0.44113   0.79444   Biso      1.000     C          0.337001  
         C41       1.0000    0.01930   0.50519   0.91910   Biso      1.000     C          0.094894  
         C42       1.0000    0.97920   0.58387   0.79590   Biso      1.000     C          0.32719000000000004           
         C43       1.0000    0.31870   0.16186   0.99734   Biso      1.000     C          -0.253132           
         C44       1.0000    0.41110   0.07932   0.99841   Biso      1.000     C          0.10442   
         C45       1.0000    0.43460   0.50577   0.10413   Biso      1.000     C          -0.154574           
         C46       1.0000    0.42470   0.45328   0.16931   Biso      1.000     C          -0.026008999999999997         
         C47       1.0000    0.54280   0.33635   0.10470   Biso      1.000     C          -0.026833999999999997         
         C48       1.0000    0.44380   0.07240   0.45986   Biso      1.000     C          -0.163733           
         C49       1.0000    0.03670   0.45765   0.56812   Biso      1.000     C          -0.162697           
         C50       1.0000    0.96240   0.57708   0.96144   Biso      1.000     C          -0.167952           
         C51       1.0000    0.56540   0.49423   0.89587   Biso      1.000     C          -0.154575           
         C52       1.0000    0.54900   0.96499   0.06942   Biso      1.000     C          -0.15674200000000002          
         C53       1.0000    0.45720   0.66365   0.89530   Biso      1.000     C          -0.026839           
         C54       1.0000    0.57530   0.54672   0.83069   Biso      1.000     C          -0.026008999999999997         
         C55       1.0000    0.91110   0.57932   0.50159   Biso      1.000     C          0.10442699999999999           
         C56       1.0000    0.47920   0.08387   0.70410   Biso      1.000     C          0.327189  
         C57       1.0000    0.51930   0.00519   0.58090   Biso      1.000     C          0.09489299999999999           
         C58       1.0000    0.60650   0.94113   0.70556   Biso      1.000     C          0.337     
         C59       1.0000    0.46240   0.07708   0.53856   Biso      1.000     C          -0.167952           
         C60       1.0000    0.75270   0.69253   0.43404   Biso      1.000     C          0.326572  
         C61       1.0000    0.81870   0.66186   0.50266   Biso      1.000     C          -0.253133           
         C62       1.0000    0.95100   0.53501   0.56942   Biso      1.000     C          -0.15674200000000002          
         C63       1.0000    0.50230   0.52693   0.96418   Biso      1.000     C          0.08932999999999999           
         C64       1.0000    0.55620   0.92760   0.54014   Biso      1.000     C          -0.163732           
         C65       1.0000    0.79530   0.70666   0.57215   Biso      1.000     C          0.33282   
         C66       1.0000    0.53710   0.01046   0.66501   Biso      1.000     C          -0.252899           
         C67       1.0000    0.44370   0.61356   0.96188   Biso      1.000     C          -0.153101           
         C68       1.0000    0.96330   0.54235   0.43188   Biso      1.000     C          -0.162696           
         H1        1.0000    0.08300   0.77910   0.39430   Biso      1.000     H          0.13564   
         H2        1.0000    0.90630   0.62150   0.06660   Biso      1.000     H          0.115159  
         H3        1.0000    0.56050   0.92940   0.88590   Biso      1.000     H          0.10931600000000001           
         H4        1.0000    0.10440   0.86280   0.50540   Biso      1.000     H          0.13814   
         H5        1.0000    0.58090   0.94180   0.11640   Biso      1.000     H          0.11133   
         H6        1.0000    0.06360   0.37070   0.06410   Biso      1.000     H          0.111159  
         H7        1.0000    0.41700   0.72090   0.89430   Biso      1.000     H          0.13564   
         H8        1.0000    0.61580   0.52320   0.78540   Biso      1.000     H          0.13313599999999998           
         H9        1.0000    0.43640   0.12930   0.56410   Biso      1.000     H          0.111159  
         H10       1.0000    0.59370   0.87850   0.56660   Biso      1.000     H          0.115159  
         H11       1.0000    0.93950   0.57060   0.38590   Biso      1.000     H          0.10931600000000001           
         H12       1.0000    0.39560   0.63720   0.00540   Biso      1.000     H          0.13814   
         H13       1.0000    0.89860   0.06400   0.39440   Biso      1.000     H          0.136076  
         H14       1.0000    0.91910   0.55820   0.61640   Biso      1.000     H          0.11133   
         H15       1.0000    0.60140   0.43600   0.89440   Biso      1.000     H          0.136076  
         H16       1.0000    0.56360   0.87070   0.43590   Biso      1.000     H          0.11116   
         H17       1.0000    0.88420   0.97680   0.28540   Biso      1.000     H          0.13313699999999998           
         H18       1.0000    0.60440   0.36280   0.99460   Biso      1.000     H          0.13814   
         H19       1.0000    0.08090   0.44180   0.38360   Biso      1.000     H          0.11133   
         H20       1.0000    0.10140   0.93600   0.60560   Biso      1.000     H          0.136076  
         H21       1.0000    0.91700   0.22090   0.60570   Biso      1.000     H          0.13564   
         H22       1.0000    0.09370   0.37850   0.93340   Biso      1.000     H          0.115159  
         H23       1.0000    0.43950   0.07060   0.11410   Biso      1.000     H          0.10931500000000001           
         H24       1.0000    0.89560   0.13720   0.49460   Biso      1.000     H          0.13814   
         H25       1.0000    0.11580   0.02320   0.71460   Biso      1.000     H          0.13313699999999998           
         H26       1.0000    0.93640   0.62930   0.93590   Biso      1.000     H          0.111159  
         H27       1.0000    0.39860   0.56400   0.10560   Biso      1.000     H          0.136076  
         H28       1.0000    0.38420   0.47680   0.21460   Biso      1.000     H          0.13313699999999998           
         H29       1.0000    0.58300   0.27910   0.10570   Biso      1.000     H          0.13564   
         H30       1.0000    0.40630   0.12150   0.43340   Biso      1.000     H          0.115159  
         H31       1.0000    0.41910   0.05820   0.88360   Biso      1.000     H          0.11133   
         H32       1.0000    0.06050   0.42940   0.61410   Biso      1.000     H          0.10931600000000001           
         N1        1.0000    0.79800   0.78864   0.87397   Biso      1.000     N          -0.481918           
         N2        1.0000    0.07480   0.35272   0.23080   Biso      1.000     N          -0.467963           
         N3        1.0000    0.33520   0.11932   0.26556   Biso      1.000     N          -0.456013           
         N4        1.0000    0.21800   0.26248   0.36725   Biso      1.000     N          -0.464237           
         N5        1.0000    0.29800   0.28864   0.62603   Biso      1.000     N          -0.481919           
         N6        1.0000    0.57480   0.85272   0.26920   Biso      1.000     N          -0.46796400000000005          
         N7        1.0000    0.16480   0.38068   0.76556   Biso      1.000     N          -0.45601400000000003          
         N8        1.0000    0.97280   0.86835   0.33146   Biso      1.000     N          0.34341   
         N9        1.0000    0.47280   0.36835   0.16854   Biso      1.000     N          0.343409  
         N10       1.0000    0.71800   0.76248   0.13275   Biso      1.000     N          -0.464238           
         N11       1.0000    0.02720   0.13165   0.66854   Biso      1.000     N          0.34341   
         N12       1.0000    0.42520   0.14728   0.73080   Biso      1.000     N          -0.46796400000000005          
         N13       1.0000    0.70200   0.71136   0.37397   Biso      1.000     N          -0.481919           
         N14       1.0000    0.52720   0.63165   0.83146   Biso      1.000     N          0.343409  
         N15       1.0000    0.78200   0.73752   0.63275   Biso      1.000     N          -0.464236           
         N16       1.0000    0.66480   0.88068   0.73444   Biso      1.000     N          -0.456013           
         N17       1.0000    0.92520   0.64728   0.76920   Biso      1.000     N          -0.467963           
         N18       1.0000    0.28200   0.23752   0.86725   Biso      1.000     N          -0.464237           
         N19       1.0000    0.20200   0.21136   0.12603   Biso      1.000     N          -0.481918           
         N20       1.0000    0.83520   0.61932   0.23444   Biso      1.000     N          -0.45601400000000003          
         O1        1.0000    0.54690   0.68391   0.76910   Biso      1.000     O          -0.49330100000000005          
         O2        1.0000    0.95310   0.81609   0.26910   Biso      1.000     O          -0.493302           
         O3        1.0000    0.04690   0.18391   0.73090   Biso      1.000     O          -0.493302           
         O4        1.0000    0.45310   0.31609   0.23090   Biso      1.000     O          -0.49330100000000005          
         Zn1       1.0000    0.28584   0.26267   0.74697   Biso      1.000     Zn          0.935517  
         Zn2       1.0000    0.21416   0.23733   0.24697   Biso      1.000     Zn          0.935515  
         Zn3       1.0000    0.71416   0.73733   0.25303   Biso      1.000     Zn          0.935517  
         Zn4       1.0000    0.78584   0.76267   0.75303   Biso      1.000     Zn          0.935515 