
##########################################################################
#               Crystallographic Information Format file
#               Produced by PyCifRW module
#
#  This is a CIF file.  CIF has been adopted by the International
#  Union of Crystallography as the standard for data archiving and
#  transmission.
#
#  For information on this file format, follow the CIF links at
#  http://www.iucr.org
##########################################################################

data_image0

_cell_length_a                          9.6892
_cell_length_b                          17.681
_cell_length_c                          21.158
_cell_angle_alpha                       90
_cell_angle_beta                        90
_cell_angle_gamma                       105.426
_symmetry_space_group_name_H-M          'P 1'
_symmetry_int_tables_number             1
loop_
  _symmetry_equiv_pos_as_xyz
         'x, y, z' 
loop_
  _atom_site_label
  _atom_site_occupancy
  _atom_site_fract_x
  _atom_site_fract_y
  _atom_site_fract_z
  _atom_site_thermal_displace_type
  _atom_site_B_iso_or_equiv
  _atom_site_type_symbol
  _atom_site_charge
         C1        1.0000    0.90200   0.75690   0.36790   Biso      1.000     C          -0.538676           
         C2        1.0000    0.84390   0.60231   0.08318   Biso      1.000     C          0.582937  
         C3        1.0000    0.72030   0.60903   0.04298   Biso      1.000     C          -0.009734           
         C4        1.0000    0.74280   0.63353   0.98022   Biso      1.000     C          -0.175004           
         C5        1.0000    0.62960   0.64100   0.94200   Biso      1.000     C          0.068506  
         C6        1.0000    0.49320   0.62030   0.96837   Biso      1.000     C          -0.149836           
         C7        1.0000    0.46910   0.59587   0.03088   Biso      1.000     C          -0.017259           
         C8        1.0000    0.58360   0.59089   0.06853   Biso      1.000     C          -0.148212           
         C9        1.0000    0.31780   0.57499   0.05510   Biso      1.000     C          0.615658  
         C10       1.0000    0.65050   0.67000   0.87356   Biso      1.000     C          0.291134  
         C11       1.0000    0.79580   0.68390   0.85150   Biso      1.000     C          -0.540267           
         C12       1.0000    0.59800   0.74310   0.86790   Biso      1.000     C          -0.538676           
         C13       1.0000    0.54900   0.61040   0.83200   Biso      1.000     C          -0.531665           
         C14       1.0000    0.33410   0.84100   0.75232   Biso      1.000     C          0.625436  
         C15       1.0000    0.27480   0.79481   0.81035   Biso      1.000     C          -0.014916           
         C16       1.0000    0.20830   0.71553   0.80487   Biso      1.000     C          -0.132712           
         C17       1.0000    0.15190   0.67277   0.85828   Biso      1.000     C          -0.026632           
         C18       1.0000    0.16470   0.70958   0.91726   Biso      1.000     C          -0.132116           
         C19       1.0000    0.23270   0.78901   0.92379   Biso      1.000     C          0.062371  
         C20       1.0000    0.28700   0.83094   0.86906   Biso      1.000     C          -0.167049           
         C21       1.0000    0.16190   0.59180   0.49040   Biso      1.000     C          -0.541052           
         C22       1.0000    0.07310   0.58661   0.85149   Biso      1.000     C          0.655868  
         C23       1.0000    0.41020   0.67050   0.50850   Biso      1.000     C          -0.530747           
         C24       1.0000    0.25500   0.67200   0.48906   Biso      1.000     C          0.282265  
         C25       1.0000    0.77970   0.89097   0.54298   Biso      1.000     C          -0.009734           
         C26       1.0000    0.75720   0.86647   0.48022   Biso      1.000     C          -0.175004           
         C27       1.0000    0.87040   0.85900   0.44200   Biso      1.000     C          0.068506  
         C28       1.0000    0.00680   0.87970   0.46837   Biso      1.000     C          -0.149836           
         C29       1.0000    0.03090   0.90413   0.53088   Biso      1.000     C          -0.017259           
         C30       1.0000    0.91640   0.90911   0.56853   Biso      1.000     C          -0.148212           
         C31       1.0000    0.18220   0.92501   0.55510   Biso      1.000     C          0.615658  
         C32       1.0000    0.84950   0.83000   0.37356   Biso      1.000     C          0.291134  
         C33       1.0000    0.70420   0.81610   0.35150   Biso      1.000     C          -0.540267           
         C34       1.0000    0.75500   0.17200   0.01094   Biso      1.000     C          0.282265  
         C35       1.0000    0.95100   0.88960   0.33200   Biso      1.000     C          -0.531665           
         C36       1.0000    0.16590   0.65900   0.25232   Biso      1.000     C          0.625436  
         C37       1.0000    0.22520   0.70519   0.31035   Biso      1.000     C          -0.014916           
         C38       1.0000    0.29170   0.78447   0.30487   Biso      1.000     C          -0.132712           
         C39       1.0000    0.34810   0.82723   0.35828   Biso      1.000     C          -0.026632           
         C40       1.0000    0.33530   0.79042   0.41726   Biso      1.000     C          -0.132116           
         C41       1.0000    0.26730   0.71099   0.42379   Biso      1.000     C          0.062371  
         C42       1.0000    0.21300   0.66906   0.36906   Biso      1.000     C          -0.167049           
         C43       1.0000    0.42690   0.91339   0.35149   Biso      1.000     C          0.655868  
         C44       1.0000    0.21260   0.72210   0.53810   Biso      1.000     C          -0.529075           
         C45       1.0000    0.24500   0.82800   0.98906   Biso      1.000     C          0.282265  
         C46       1.0000    0.28740   0.77790   0.03810   Biso      1.000     C          -0.529076           
         C47       1.0000    0.08980   0.82950   0.00850   Biso      1.000     C          -0.530747           
         C48       1.0000    0.83810   0.40820   0.50960   Biso      1.000     C          -0.541051           
         C49       1.0000    0.15610   0.39769   0.91682   Biso      1.000     C          0.582937  
         C50       1.0000    0.27970   0.39097   0.95702   Biso      1.000     C          -0.009734           
         C51       1.0000    0.25720   0.36647   0.01978   Biso      1.000     C          -0.175004           
         C52       1.0000    0.37040   0.35900   0.05800   Biso      1.000     C          0.068506  
         C53       1.0000    0.50680   0.37970   0.03163   Biso      1.000     C          -0.149836           
         C54       1.0000    0.53090   0.40413   0.96912   Biso      1.000     C          -0.017259           
         C55       1.0000    0.41640   0.40911   0.93147   Biso      1.000     C          -0.148212           
         C56       1.0000    0.68220   0.42501   0.94490   Biso      1.000     C          0.615658  
         C57       1.0000    0.34950   0.33000   0.12644   Biso      1.000     C          0.291134  
         C58       1.0000    0.20420   0.31610   0.14850   Biso      1.000     C          -0.540267           
         C59       1.0000    0.40200   0.25690   0.13210   Biso      1.000     C          -0.538676           
         C60       1.0000    0.45100   0.38960   0.16800   Biso      1.000     C          -0.531665           
         C61       1.0000    0.66590   0.15900   0.24768   Biso      1.000     C          0.625436  
         C62       1.0000    0.72520   0.20519   0.18965   Biso      1.000     C          -0.014916           
         C63       1.0000    0.79170   0.28447   0.19513   Biso      1.000     C          -0.132712           
         C64       1.0000    0.84810   0.32723   0.14172   Biso      1.000     C          -0.026632           
         C65       1.0000    0.83530   0.29042   0.08274   Biso      1.000     C          -0.132116           
         C66       1.0000    0.76730   0.21099   0.07621   Biso      1.000     C          0.062371  
         C67       1.0000    0.58980   0.32950   0.49150   Biso      1.000     C          -0.530747           
         C68       1.0000    0.78740   0.27790   0.46190   Biso      1.000     C          -0.529076           
         C69       1.0000    0.74500   0.32800   0.51094   Biso      1.000     C          0.282265  
         C70       1.0000    0.57310   0.08661   0.64851   Biso      1.000     C          0.655867  
         C71       1.0000    0.33810   0.90820   0.99040   Biso      1.000     C          -0.541051           
         C72       1.0000    0.34390   0.10231   0.41682   Biso      1.000     C          0.582937  
         C73       1.0000    0.22030   0.10903   0.45702   Biso      1.000     C          -0.009734           
         C74       1.0000    0.24280   0.13353   0.51978   Biso      1.000     C          -0.175004           
         C75       1.0000    0.12960   0.14100   0.55800   Biso      1.000     C          0.068506  
         C76       1.0000    0.99320   0.12030   0.53163   Biso      1.000     C          -0.149836           
         C77       1.0000    0.96910   0.09587   0.46912   Biso      1.000     C          -0.017259           
         C78       1.0000    0.08360   0.09089   0.43147   Biso      1.000     C          -0.148212           
         C79       1.0000    0.81780   0.07499   0.44490   Biso      1.000     C          0.615658  
         C80       1.0000    0.65610   0.89769   0.58318   Biso      1.000     C          0.582937  
         C81       1.0000    0.15050   0.17000   0.62644   Biso      1.000     C          0.291134  
         C82       1.0000    0.09800   0.24310   0.63210   Biso      1.000     C          -0.538676           
         C83       1.0000    0.04900   0.11040   0.66800   Biso      1.000     C          -0.531665           
         C84       1.0000    0.83410   0.34100   0.74768   Biso      1.000     C          0.625436  
         C85       1.0000    0.77480   0.29481   0.68965   Biso      1.000     C          -0.014916           
         C86       1.0000    0.70830   0.21553   0.69513   Biso      1.000     C          -0.132712           
         C87       1.0000    0.65190   0.17277   0.64172   Biso      1.000     C          -0.026632           
         C88       1.0000    0.66470   0.20958   0.58274   Biso      1.000     C          -0.132116           
         C89       1.0000    0.73270   0.28901   0.57621   Biso      1.000     C          0.062371  
         C90       1.0000    0.78700   0.33094   0.63094   Biso      1.000     C          -0.167049           
         C91       1.0000    0.29580   0.18390   0.64850   Biso      1.000     C          -0.540267           
         C92       1.0000    0.71300   0.16906   0.13094   Biso      1.000     C          -0.167049           
         C93       1.0000    0.92690   0.41339   0.14851   Biso      1.000     C          0.655868  
         C94       1.0000    0.66190   0.09180   0.00960   Biso      1.000     C          -0.541051           
         C95       1.0000    0.91020   0.17050   0.99150   Biso      1.000     C          -0.530747           
         C96       1.0000    0.71260   0.22210   0.96190   Biso      1.000     C          -0.529075           
         Cd1       1.0000    0.00000   0.50000   0.00000   Biso      1.000     Cd          1.120388  
         Cd2       1.0000    0.42438   0.92571   0.64738   Biso      1.000     Cd          0.98189   
         Cd3       1.0000    0.07562   0.57429   0.14738   Biso      1.000     Cd          0.98189   
         Cd4       1.0000    0.57562   0.07429   0.35262   Biso      1.000     Cd          0.98189   
         Cd5       1.0000    0.92438   0.42571   0.85262   Biso      1.000     Cd          0.98189   
         Cd6       1.0000    0.50000   0.00000   0.50000   Biso      1.000     Cd          1.120388  
         H1        1.0000    0.85720   0.72490   0.87610   Biso      1.000     H          0.152514  
         H2        1.0000    0.82640   0.63680   0.85580   Biso      1.000     H          0.154576  
         H3        1.0000    0.56400   0.57400   0.10730   Biso      1.000     H          0.129224  
         H4        1.0000    0.40800   0.62500   0.94410   Biso      1.000     H          0.107586  
         H5        1.0000    0.54700   0.39800   0.15250   Biso      1.000     H          0.15492   
         H6        1.0000    0.19710   0.55980   0.46110   Biso      1.000     H          0.148059  
         H7        1.0000    0.16120   0.57070   0.53220   Biso      1.000     H          0.151776  
         H8        1.0000    0.80080   0.69930   0.80780   Biso      1.000     H          0.159893  
         H9        1.0000    0.83700   0.64100   0.96340   Biso      1.000     H          0.112721  
         H10       1.0000    0.65760   0.78430   0.89300   Biso      1.000     H          0.142791  
         H11       1.0000    0.45300   0.60200   0.84750   Biso      1.000     H          0.15492   
         H12       1.0000    0.60220   0.75930   0.82450   Biso      1.000     H          0.157476  
         H13       1.0000    0.57550   0.56180   0.83280   Biso      1.000     H          0.157711  
         H14       1.0000    0.55430   0.62980   0.78940   Biso      1.000     H          0.15274   
         H15       1.0000    0.06640   0.59230   0.47870   Biso      1.000     H          0.150107  
         H16       1.0000    0.19800   0.69300   0.76510   Biso      1.000     H          0.115468  
         H17       1.0000    0.12100   0.68100   0.95600   Biso      1.000     H          0.120058  
         H18       1.0000    0.33900   0.88700   0.87200   Biso      1.000     H          0.087145  
         H19       1.0000    0.38320   0.77480   0.03010   Biso      1.000     H          0.153865  
         H20       1.0000    0.50100   0.73210   0.88270   Biso      1.000     H          0.145115  
         H21       1.0000    0.44730   0.64080   0.47800   Biso      1.000     H          0.148412  
         H22       1.0000    0.11680   0.72520   0.53010   Biso      1.000     H          0.153866  
         H23       1.0000    0.40780   0.64650   0.54940   Biso      1.000     H          0.156411  
         H24       1.0000    0.66300   0.85900   0.46340   Biso      1.000     H          0.112721  
         H25       1.0000    0.09200   0.87500   0.44410   Biso      1.000     H          0.107586  
         H26       1.0000    0.93600   0.92600   0.60730   Biso      1.000     H          0.129224  
         H27       1.0000    0.67360   0.86320   0.35580   Biso      1.000     H          0.154576  
         H28       1.0000    0.64280   0.77510   0.37610   Biso      1.000     H          0.152514  
         H29       1.0000    0.69920   0.80070   0.30780   Biso      1.000     H          0.159893  
         H30       1.0000    0.84240   0.71570   0.39300   Biso      1.000     H          0.142791  
         H31       1.0000    0.99900   0.76790   0.38270   Biso      1.000     H          0.145115  
         H32       1.0000    0.47060   0.72320   0.51010   Biso      1.000     H          0.164113  
         H33       1.0000    0.89780   0.74070   0.32450   Biso      1.000     H          0.157476  
         H34       1.0000    0.94570   0.87020   0.28940   Biso      1.000     H          0.15274   
         H35       1.0000    0.04700   0.89800   0.34750   Biso      1.000     H          0.15492   
         H36       1.0000    0.30200   0.80700   0.26510   Biso      1.000     H          0.115468  
         H37       1.0000    0.37900   0.81900   0.45600   Biso      1.000     H          0.120058  
         H38       1.0000    0.16100   0.61300   0.37200   Biso      1.000     H          0.087145  
         H39       1.0000    0.22300   0.72620   0.03680   Biso      1.000     H          0.164046  
         H40       1.0000    0.27700   0.77380   0.53680   Biso      1.000     H          0.164046  
         H41       1.0000    0.21690   0.69950   0.57910   Biso      1.000     H          0.156021  
         H42       1.0000    0.92450   0.93820   0.33280   Biso      1.000     H          0.157711  
         H43       1.0000    0.44570   0.37020   0.21060   Biso      1.000     H          0.15274   
         H44       1.0000    0.28310   0.80050   0.07910   Biso      1.000     H          0.156021  
         H45       1.0000    0.02940   0.77680   0.01010   Biso      1.000     H          0.164113  
         H46       1.0000    0.80290   0.44020   0.53890   Biso      1.000     H          0.148059  
         H47       1.0000    0.16300   0.35900   0.03660   Biso      1.000     H          0.112721  
         H48       1.0000    0.59200   0.37500   0.05590   Biso      1.000     H          0.107586  
         H49       1.0000    0.43600   0.42600   0.89270   Biso      1.000     H          0.129224  
         H50       1.0000    0.17360   0.36320   0.14420   Biso      1.000     H          0.154576  
         H51       1.0000    0.14280   0.27510   0.12390   Biso      1.000     H          0.152514  
         H52       1.0000    0.19920   0.30070   0.19220   Biso      1.000     H          0.159893  
         H53       1.0000    0.34240   0.21570   0.10700   Biso      1.000     H          0.142791  
         H54       1.0000    0.49900   0.26790   0.11730   Biso      1.000     H          0.145115  
         H55       1.0000    0.39780   0.24070   0.17550   Biso      1.000     H          0.157476  
         H56       1.0000    0.83880   0.42930   0.46780   Biso      1.000     H          0.151776  
         H57       1.0000    0.69710   0.05980   0.03890   Biso      1.000     H          0.148059  
         H58       1.0000    0.56640   0.09230   0.02130   Biso      1.000     H          0.150107  
         H59       1.0000    0.94730   0.14080   0.02200   Biso      1.000     H          0.148412  
         H60       1.0000    0.97060   0.22320   0.98990   Biso      1.000     H          0.164113  
         H61       1.0000    0.90780   0.14650   0.95060   Biso      1.000     H          0.156411  
         H62       1.0000    0.71690   0.19950   0.92090   Biso      1.000     H          0.156021  
         H63       1.0000    0.42450   0.43820   0.16720   Biso      1.000     H          0.157711  
         H64       1.0000    0.61680   0.22520   0.96990   Biso      1.000     H          0.153865  
         H65       1.0000    0.66100   0.11300   0.12800   Biso      1.000     H          0.087145  
         H66       1.0000    0.87900   0.31900   0.04400   Biso      1.000     H          0.120058  
         H67       1.0000    0.80200   0.30700   0.23490   Biso      1.000     H          0.115468  
         H68       1.0000    0.66120   0.07070   0.96780   Biso      1.000     H          0.151776  
         H69       1.0000    0.93360   0.40770   0.52130   Biso      1.000     H          0.150107  
         H70       1.0000    0.55270   0.35920   0.52200   Biso      1.000     H          0.148412  
         H71       1.0000    0.52940   0.27680   0.48990   Biso      1.000     H          0.164113  
         H72       1.0000    0.05270   0.85920   0.97800   Biso      1.000     H          0.148412  
         H73       1.0000    0.43360   0.90770   0.97870   Biso      1.000     H          0.150107  
         H74       1.0000    0.33880   0.92930   0.03220   Biso      1.000     H          0.151776  
         H75       1.0000    0.30290   0.94020   0.96110   Biso      1.000     H          0.148059  
         H76       1.0000    0.33700   0.14100   0.53660   Biso      1.000     H          0.112721  
         H77       1.0000    0.90800   0.12500   0.55590   Biso      1.000     H          0.107586  
         H78       1.0000    0.06400   0.07400   0.39270   Biso      1.000     H          0.129224  
         H79       1.0000    0.32640   0.13680   0.64420   Biso      1.000     H          0.154576  
         H80       1.0000    0.35720   0.22490   0.62390   Biso      1.000     H          0.152514  
         H81       1.0000    0.30080   0.19930   0.69220   Biso      1.000     H          0.159893  
         H82       1.0000    0.15760   0.28430   0.60700   Biso      1.000     H          0.142791  
         H83       1.0000    0.00100   0.23210   0.61730   Biso      1.000     H          0.145115  
         H84       1.0000    0.10220   0.25930   0.67550   Biso      1.000     H          0.157476  
         H85       1.0000    0.07550   0.06180   0.66720   Biso      1.000     H          0.157711  
         H86       1.0000    0.05430   0.12980   0.71060   Biso      1.000     H          0.15274   
         H87       1.0000    0.95300   0.10200   0.65250   Biso      1.000     H          0.15492   
         H88       1.0000    0.69800   0.19300   0.73490   Biso      1.000     H          0.115468  
         H89       1.0000    0.62100   0.18100   0.54400   Biso      1.000     H          0.120058  
         H90       1.0000    0.83900   0.38700   0.62800   Biso      1.000     H          0.087145  
         H91       1.0000    0.88320   0.27480   0.46990   Biso      1.000     H          0.153865  
         H92       1.0000    0.72300   0.22620   0.46320   Biso      1.000     H          0.164046  
         H93       1.0000    0.78310   0.30050   0.42090   Biso      1.000     H          0.156021  
         H94       1.0000    0.59220   0.35350   0.45060   Biso      1.000     H          0.156411  
         H95       1.0000    0.09220   0.85350   0.04940   Biso      1.000     H          0.156411  
         H96       1.0000    0.77700   0.27380   0.96320   Biso      1.000     H          0.164046  
         Li1       1.0000    0.97690   0.49210   0.28540   Biso      1.000     Li          0.913912  
         Li2       1.0000    0.47690   0.99210   0.21460   Biso      1.000     Li          0.913912  
         Li3       1.0000    0.02310   0.50790   0.71460   Biso      1.000     Li          0.913912  
         Li4       1.0000    0.52310   0.00790   0.78540   Biso      1.000     Li          0.913912  
         O1        1.0000    0.33110   0.09415   0.35875   Biso      1.000     O          -0.540909           
         O2        1.0000    0.79650   0.07572   0.38710   Biso      1.000     O          -0.552315           
         O3        1.0000    0.72340   0.05975   0.48726   Biso      1.000     O          -0.603147           
         O4        1.0000    0.82860   0.30721   0.79974   Biso      1.000     O          -0.524813           
         O5        1.0000    0.88620   0.41420   0.74289   Biso      1.000     O          -0.752136           
         O6        1.0000    0.56590   0.05586   0.70096   Biso      1.000     O          -0.710292           
         O7        1.0000    0.03610   0.39494   0.94431   Biso      1.000     O          -0.624198           
         O8        1.0000    0.46390   0.10506   0.44431   Biso      1.000     O          -0.624198           
         O9        1.0000    0.16890   0.40585   0.85875   Biso      1.000     O          -0.540909           
         O10       1.0000    0.70350   0.42428   0.88710   Biso      1.000     O          -0.552315           
         O11       1.0000    0.77660   0.44025   0.98726   Biso      1.000     O          -0.603147           
         O12       1.0000    0.67140   0.19279   0.29974   Biso      1.000     O          -0.524813           
         O13       1.0000    0.61380   0.08580   0.24289   Biso      1.000     O          -0.752136           
         O14       1.0000    0.51130   0.05067   0.60101   Biso      1.000     O          -0.590158           
         O15       1.0000    0.01130   0.55067   0.89899   Biso      1.000     O          -0.590158           
         O16       1.0000    0.06590   0.55586   0.79904   Biso      1.000     O          -0.710292           
         O17       1.0000    0.38620   0.91420   0.75711   Biso      1.000     O          -0.752136           
         O18       1.0000    0.32860   0.80721   0.70026   Biso      1.000     O          -0.524813           
         O19       1.0000    0.22340   0.55975   0.01274   Biso      1.000     O          -0.603147           
         O20       1.0000    0.29650   0.57572   0.11290   Biso      1.000     O          -0.552315           
         O21       1.0000    0.83110   0.59415   0.14125   Biso      1.000     O          -0.540909           
         O22       1.0000    0.96390   0.60506   0.05569   Biso      1.000     O          -0.624198           
         O23       1.0000    0.48870   0.94933   0.39899   Biso      1.000     O          -0.590158           
         O24       1.0000    0.43410   0.94414   0.29904   Biso      1.000     O          -0.710292           
         O25       1.0000    0.11380   0.58580   0.25711   Biso      1.000     O          -0.752136           
         O26       1.0000    0.17140   0.69279   0.20026   Biso      1.000     O          -0.524813           
         O27       1.0000    0.27660   0.94025   0.51274   Biso      1.000     O          -0.603147           
         O28       1.0000    0.20350   0.92428   0.61290   Biso      1.000     O          -0.552315           
         O29       1.0000    0.66890   0.90585   0.64125   Biso      1.000     O          -0.540909           
         O30       1.0000    0.53610   0.89494   0.55569   Biso      1.000     O          -0.624198           
         O31       1.0000    0.93410   0.44414   0.20096   Biso      1.000     O          -0.710292           
         O32       1.0000    0.98870   0.44933   0.10101   Biso      1.000     O          -0.590158 