
##########################################################################
#               Crystallographic Information Format file
#               Produced by PyCifRW module
#
#  This is a CIF file.  CIF has been adopted by the International
#  Union of Crystallography as the standard for data archiving and
#  transmission.
#
#  For information on this file format, follow the CIF links at
#  http://www.iucr.org
##########################################################################

data_image0

_cell_length_a                          12.624
_cell_length_b                          15.891
_cell_length_c                          16.585
_cell_angle_alpha                       90
_cell_angle_beta                        105.217
_cell_angle_gamma                       90
_symmetry_space_group_name_H-M          'P 1'
_symmetry_int_tables_number             1
loop_
  _symmetry_equiv_pos_as_xyz
         'x, y, z' 
loop_
  _atom_site_label
  _atom_site_occupancy
  _atom_site_fract_x
  _atom_site_fract_y
  _atom_site_fract_z
  _atom_site_thermal_displace_type
  _atom_site_B_iso_or_equiv
  _atom_site_type_symbol
  _atom_site_charge
         C1        1.0000    0.27550   0.90870   0.60160   Biso      1.000     C          0.68196   
         C2        1.0000    0.18390   0.21560   0.47680   Biso      1.000     C          0.48197700000000004           
         C3        1.0000    0.54770   0.55130   0.84310   Biso      1.000     C          -0.286568           
         C4        1.0000    0.69240   0.47810   0.95220   Biso      1.000     C          -0.283561           
         C5        1.0000    0.97180   0.61420   0.18550   Biso      1.000     C          0.713978  
         C6        1.0000    0.90560   0.86080   0.15500   Biso      1.000     C          0.639954  
         C7        1.0000    0.64170   0.98880   0.92490   Biso      1.000     C          0.69083   
         C8        1.0000    0.47840   0.81610   0.77770   Biso      1.000     C          0.7015560000000001  
         C9        1.0000    0.34150   0.27130   0.55340   Biso      1.000     C          0.44375   
         C10       1.0000    0.72450   0.09130   0.39840   Biso      1.000     C          0.682772  
         C11       1.0000    0.55360   0.90580   0.26150   Biso      1.000     C          0.690477  
         C12       1.0000    0.47840   0.68390   0.27770   Biso      1.000     C          0.7035319999999999  
         C13       1.0000    0.64170   0.51120   0.42490   Biso      1.000     C          0.690841  
         C14       1.0000    0.90560   0.63920   0.65500   Biso      1.000     C          0.639385  
         C15       1.0000    0.97180   0.88580   0.68550   Biso      1.000     C          0.71431   
         C16       1.0000    0.48050   0.82600   0.86930   Biso      1.000     C          -0.276865           
         C17       1.0000    0.69240   0.02190   0.45220   Biso      1.000     C          -0.283746           
         C18       1.0000    0.72450   0.40870   0.89840   Biso      1.000     C          0.6820510000000001  
         C19       1.0000    0.54770   0.94870   0.34310   Biso      1.000     C          -0.287234           
         C20       1.0000    0.51950   0.32600   0.63070   Biso      1.000     C          -0.276858           
         C21       1.0000    0.48050   0.67400   0.36930   Biso      1.000     C          -0.277719           
         C22       1.0000    0.60950   0.58150   0.47140   Biso      1.000     C          -0.278337           
         C23       1.0000    0.39050   0.41850   0.52860   Biso      1.000     C          -0.2786   
         C24       1.0000    0.95770   0.68930   0.59660   Biso      1.000     C          -0.247415           
         C25       1.0000    0.44640   0.09420   0.73850   Biso      1.000     C          0.691488  
         C26       1.0000    0.98710   0.84420   0.60570   Biso      1.000     C          -0.275003           
         C27       1.0000    0.04230   0.31070   0.40340   Biso      1.000     C          -0.247486           
         C28       1.0000    0.81610   0.78440   0.52320   Biso      1.000     C          0.48206099999999996           
         C29       1.0000    0.68750   0.86710   0.43980   Biso      1.000     C          0.46961499999999995           
         C30       1.0000    0.65850   0.72870   0.44660   Biso      1.000     C          0.443435  
         C31       1.0000    0.01290   0.15580   0.39430   Biso      1.000     C          -0.27531500000000003          
         C32       1.0000    0.55360   0.59420   0.76150   Biso      1.000     C          0.6910390000000001  
         C33       1.0000    0.60950   0.91850   0.97140   Biso      1.000     C          -0.27852  
         C34       1.0000    0.31250   0.13290   0.56020   Biso      1.000     C          0.46948   
         C35       1.0000    0.51950   0.17400   0.13070   Biso      1.000     C          -0.277339           
         C36       1.0000    0.02820   0.11420   0.31450   Biso      1.000     C          0.713988  
         C37       1.0000    0.45230   0.44870   0.15690   Biso      1.000     C          -0.287054           
         C38       1.0000    0.30760   0.97810   0.54780   Biso      1.000     C          -0.283744           
         C39       1.0000    0.02820   0.38580   0.81450   Biso      1.000     C          0.713771  
         C40       1.0000    0.95770   0.81070   0.09660   Biso      1.000     C          -0.24690900000000002          
         C41       1.0000    0.45230   0.05130   0.65690   Biso      1.000     C          -0.286514           
         C42       1.0000    0.39050   0.08150   0.02860   Biso      1.000     C          -0.27824  
         C43       1.0000    0.09440   0.13920   0.84500   Biso      1.000     C          0.639938  
         C44       1.0000    0.65850   0.77130   0.94660   Biso      1.000     C          0.443416  
         C45       1.0000    0.04230   0.18930   0.90340   Biso      1.000     C          -0.24738800000000002          
         C46       1.0000    0.68750   0.63290   0.93980   Biso      1.000     C          0.46945299999999995           
         C47       1.0000    0.81610   0.71560   0.02320   Biso      1.000     C          0.481965  
         C48       1.0000    0.30760   0.52190   0.04780   Biso      1.000     C          -0.283804           
         C49       1.0000    0.01290   0.34420   0.89430   Biso      1.000     C          -0.275122           
         C50       1.0000    0.52160   0.18390   0.22230   Biso      1.000     C          0.7032430000000001  
         C51       1.0000    0.52160   0.31610   0.72230   Biso      1.000     C          0.701758  
         C52       1.0000    0.35830   0.48880   0.57510   Biso      1.000     C          0.691008  
         C53       1.0000    0.35830   0.01120   0.07510   Biso      1.000     C          0.688397  
         C54       1.0000    0.27550   0.59130   0.10160   Biso      1.000     C          0.684083  
         C55       1.0000    0.98710   0.65580   0.10570   Biso      1.000     C          -0.275067           
         C56       1.0000    0.09440   0.36080   0.34500   Biso      1.000     C          0.6394569999999999  
         C57       1.0000    0.44640   0.40580   0.23850   Biso      1.000     C          0.692368  
         C58       1.0000    0.31250   0.36710   0.06020   Biso      1.000     C          0.469693  
         C59       1.0000    0.18390   0.28440   0.97680   Biso      1.000     C          0.48213   
         C60       1.0000    0.34150   0.22870   0.05340   Biso      1.000     C          0.443377  
         H1        1.0000    0.96380   0.30760   0.37820   Biso      1.000     H          0.09603300000000001           
         H2        1.0000    0.05320   0.34160   0.45540   Biso      1.000     H          0.134346  
         H3        1.0000    0.45540   0.43490   0.51150   Biso      1.000     H          0.13638699999999998           
         H4        1.0000    0.02500   0.11380   0.43820   Biso      1.000     H          0.129719  
         H5        1.0000    0.93750   0.17480   0.38390   Biso      1.000     H          0.135415  
         H6        1.0000    0.33200   0.40880   0.47830   Biso      1.000     H          0.148611  
         H7        1.0000    0.66800   0.90880   0.02170   Biso      1.000     H          0.148465  
         H8        1.0000    0.55080   0.27580   0.61300   Biso      1.000     H          0.119117  
         H9        1.0000    0.54460   0.93490   0.98850   Biso      1.000     H          0.136951  
         H10       1.0000    0.03620   0.80760   0.12180   Biso      1.000     H          0.09456200000000001           
         H11       1.0000    0.43380   0.87310   0.87440   Biso      1.000     H          0.114397  
         H12       1.0000    0.44920   0.77580   0.88700   Biso      1.000     H          0.11932999999999999           
         H13       1.0000    0.94680   0.84160   0.04460   Biso      1.000     H          0.134441  
         H14       1.0000    0.49080   0.57810   0.86360   Biso      1.000     H          0.118327  
         H15       1.0000    0.56620   0.37310   0.62560   Biso      1.000     H          0.113916  
         H16       1.0000    0.63670   0.45590   0.97700   Biso      1.000     H          0.125185  
         H17       1.0000    0.97500   0.61380   0.06180   Biso      1.000     H          0.129754  
         H18       1.0000    0.06250   0.67480   0.11610   Biso      1.000     H          0.135192  
         H19       1.0000    0.47270   0.99280   0.66830   Biso      1.000     H          0.126304  
         H20       1.0000    0.36330   0.95590   0.52300   Biso      1.000     H          0.125304  
         H21       1.0000    0.24380   0.99170   0.50260   Biso      1.000     H          0.144699  
         H22       1.0000    0.50920   0.07810   0.63640   Biso      1.000     H          0.118236  
         H23       1.0000    0.75620   0.49170   0.99740   Biso      1.000     H          0.144689  
         H24       1.0000    0.52730   0.49280   0.83170   Biso      1.000     H          0.126129  
         H25       1.0000    0.94680   0.65840   0.54460   Biso      1.000     H          0.133976  
         H26       1.0000    0.24380   0.50830   0.00260   Biso      1.000     H          0.145241  
         H27       1.0000    0.33200   0.09120   0.97830   Biso      1.000     H          0.14804900000000001           
         H28       1.0000    0.96380   0.19240   0.87820   Biso      1.000     H          0.096108  
         H29       1.0000    0.05320   0.15840   0.95540   Biso      1.000     H          0.134944  
         H30       1.0000    0.02500   0.38620   0.93820   Biso      1.000     H          0.129675  
         H31       1.0000    0.93750   0.32520   0.88390   Biso      1.000     H          0.135431  
         H32       1.0000    0.55080   0.22420   0.11300   Biso      1.000     H          0.119298  
         H33       1.0000    0.50920   0.42190   0.13640   Biso      1.000     H          0.118317  
         H34       1.0000    0.47270   0.50720   0.16830   Biso      1.000     H          0.126254  
         H35       1.0000    0.36330   0.54410   0.02300   Biso      1.000     H          0.125632  
         H36       1.0000    0.45540   0.06510   0.01150   Biso      1.000     H          0.13598   
         H37       1.0000    0.75620   0.00830   0.49740   Biso      1.000     H          0.14513299999999998           
         H38       1.0000    0.63670   0.04410   0.47700   Biso      1.000     H          0.125513  
         H39       1.0000    0.56620   0.12690   0.12560   Biso      1.000     H          0.114344  
         H40       1.0000    0.49080   0.92190   0.36360   Biso      1.000     H          0.11805299999999999           
         H41       1.0000    0.44920   0.72420   0.38700   Biso      1.000     H          0.119343  
         H42       1.0000    0.52730   0.00720   0.33170   Biso      1.000     H          0.12591   
         H43       1.0000    0.97500   0.88620   0.56180   Biso      1.000     H          0.12983599999999998           
         H44       1.0000    0.03620   0.69240   0.62180   Biso      1.000     H          0.09601599999999999           
         H45       1.0000    0.66800   0.59120   0.52170   Biso      1.000     H          0.148579  
         H46       1.0000    0.54460   0.56510   0.48850   Biso      1.000     H          0.136483  
         H47       1.0000    0.06250   0.82520   0.61610   Biso      1.000     H          0.135626  
         H48       1.0000    0.43380   0.62690   0.37440   Biso      1.000     H          0.114325  
         N1        1.0000    0.75440   0.71490   0.50080   Biso      1.000     N          -0.542064           
         N2        1.0000    0.62050   0.80200   0.41020   Biso      1.000     N          -0.528996           
         N3        1.0000    0.78380   0.86400   0.49700   Biso      1.000     N          -0.586663           
         N4        1.0000    0.75440   0.78510   0.00080   Biso      1.000     N          -0.542556           
         N5        1.0000    0.62050   0.69800   0.91020   Biso      1.000     N          -0.528829           
         N6        1.0000    0.78380   0.63600   0.99700   Biso      1.000     N          -0.58608  
         N7        1.0000    0.65100   0.55520   0.90780   Biso      1.000     N          -0.083514           
         N8        1.0000    0.91630   0.72520   0.07690   Biso      1.000     N          -0.040826999999999995         
         N9        1.0000    0.58660   0.83960   0.92470   Biso      1.000     N          -0.087197           
         N10       1.0000    0.65100   0.94480   0.40780   Biso      1.000     N          -0.083664           
         N11       1.0000    0.24560   0.21490   0.99920   Biso      1.000     N          -0.542622           
         N12       1.0000    0.08370   0.27480   0.92310   Biso      1.000     N          -0.040898000000000004         
         N13       1.0000    0.21620   0.36400   0.00300   Biso      1.000     N          -0.586222           
         N14       1.0000    0.34900   0.44480   0.09220   Biso      1.000     N          -0.083254           
         N15       1.0000    0.41340   0.16040   0.07530   Biso      1.000     N          -0.087862           
         N16       1.0000    0.58660   0.66040   0.42470   Biso      1.000     N          -0.08835900000000001          
         N17       1.0000    0.41340   0.33960   0.57530   Biso      1.000     N          -0.08823500000000001          
         N18       1.0000    0.08370   0.22520   0.42310   Biso      1.000     N          -0.040904           
         N19       1.0000    0.34900   0.05520   0.59220   Biso      1.000     N          -0.08408600000000001          
         N20       1.0000    0.21620   0.13600   0.50300   Biso      1.000     N          -0.585767           
         N21       1.0000    0.37950   0.19800   0.58980   Biso      1.000     N          -0.529266           
         N22       1.0000    0.24560   0.28510   0.49920   Biso      1.000     N          -0.542093           
         N23       1.0000    0.37950   0.30200   0.08980   Biso      1.000     N          -0.529105           
         N24       1.0000    0.91630   0.77480   0.57690   Biso      1.000     N          -0.040885000000000005         
         O1        1.0000    0.05400   0.43200   0.32220   Biso      1.000     O          -0.6070989999999999           
         O2        1.0000    0.17570   0.33700   0.32000   Biso      1.000     O          -0.593372           
         O3        1.0000    0.31990   0.47470   0.63770   Biso      1.000     O          -0.619868           
         O4        1.0000    0.44930   0.34850   0.75100   Biso      1.000     O          -0.619223           
         O5        1.0000    0.60440   0.27780   0.76660   Biso      1.000     O          -0.564919           
         O6        1.0000    0.53570   0.12090   0.78280   Biso      1.000     O          -0.56921  
         O7        1.0000    0.35670   0.09680   0.75750   Biso      1.000     O          -0.608135           
         O8        1.0000    0.25550   0.92910   0.66930   Biso      1.000     O          -0.589252           
         O9        1.0000    0.27080   0.83560   0.57310   Biso      1.000     O          -0.623334           
         O10       1.0000    0.36630   0.56360   0.54750   Biso      1.000     O          -0.624043           
         O11       1.0000    0.04780   0.92860   0.72570   Biso      1.000     O          -0.589609           
         O12       1.0000    0.95220   0.07140   0.27430   Biso      1.000     O          -0.591069           
         O13       1.0000    0.55070   0.65150   0.24900   Biso      1.000     O          -0.618862           
         O14       1.0000    0.63370   0.43640   0.45250   Biso      1.000     O          -0.623805           
         O15       1.0000    0.68010   0.52530   0.36230   Biso      1.000     O          -0.621099           
         O16       1.0000    0.04780   0.57140   0.22570   Biso      1.000     O          -0.59016  
         O17       1.0000    0.39560   0.72220   0.23340   Biso      1.000     O          -0.561389           
         O18       1.0000    0.46430   0.87910   0.21720   Biso      1.000     O          -0.568275           
         O19       1.0000    0.64330   0.90320   0.24250   Biso      1.000     O          -0.609491           
         O20       1.0000    0.74450   0.07090   0.33070   Biso      1.000     O          -0.5891770000000001           
         O21       1.0000    0.72920   0.16440   0.42690   Biso      1.000     O          -0.622991           
         O22       1.0000    0.53570   0.37910   0.28280   Biso      1.000     O          -0.569041           
         O23       1.0000    0.60440   0.22220   0.26660   Biso      1.000     O          -0.5647300000000001           
         O24       1.0000    0.44930   0.15150   0.25100   Biso      1.000     O          -0.620267           
         O25       1.0000    0.95220   0.42860   0.77430   Biso      1.000     O          -0.590017           
         O26       1.0000    0.11310   0.37140   0.79250   Biso      1.000     O          -0.618251           
         O27       1.0000    0.17570   0.16300   0.82000   Biso      1.000     O          -0.595083           
         O28       1.0000    0.05400   0.06800   0.82220   Biso      1.000     O          -0.608574           
         O29       1.0000    0.94600   0.56800   0.67780   Biso      1.000     O          -0.6071489999999999           
         O30       1.0000    0.82430   0.66300   0.68000   Biso      1.000     O          -0.594741           
         O31       1.0000    0.88690   0.87140   0.70750   Biso      1.000     O          -0.61839  
         O32       1.0000    0.11310   0.12860   0.29250   Biso      1.000     O          -0.6188020000000001           
         O33       1.0000    0.88690   0.62860   0.20750   Biso      1.000     O          -0.618382           
         O34       1.0000    0.82430   0.83700   0.18000   Biso      1.000     O          -0.594651           
         O35       1.0000    0.94600   0.93200   0.17780   Biso      1.000     O          -0.607686           
         O36       1.0000    0.63370   0.06360   0.95250   Biso      1.000     O          -0.624628           
         O37       1.0000    0.68010   0.97470   0.86230   Biso      1.000     O          -0.6217010000000001           
         O38       1.0000    0.36630   0.93640   0.04750   Biso      1.000     O          -0.62368  
         O39       1.0000    0.39560   0.77780   0.73340   Biso      1.000     O          -0.564405           
         O40       1.0000    0.55070   0.84850   0.74900   Biso      1.000     O          -0.620224           
         O41       1.0000    0.64330   0.59680   0.74250   Biso      1.000     O          -0.608946           
         O42       1.0000    0.74450   0.42910   0.83070   Biso      1.000     O          -0.589283           
         O43       1.0000    0.72920   0.33560   0.92690   Biso      1.000     O          -0.623617           
         O44       1.0000    0.27080   0.66440   0.07310   Biso      1.000     O          -0.623359           
         O45       1.0000    0.25550   0.57090   0.16930   Biso      1.000     O          -0.589763           
         O46       1.0000    0.35670   0.40320   0.25750   Biso      1.000     O          -0.609209           
         O47       1.0000    0.46430   0.62090   0.71720   Biso      1.000     O          -0.569475           
         O48       1.0000    0.31990   0.02530   0.13770   Biso      1.000     O          -0.621305           
         U1        1.0000    0.18895   0.47202   0.24602   Biso      1.000     U          1.277535  
         U2        1.0000    0.26393   0.10750   0.23791   Biso      1.000     U          1.216682  
         U3        1.0000    0.34927   0.69832   0.60788   Biso      1.000     U          1.210113  
         U4        1.0000    0.73607   0.60750   0.26209   Biso      1.000     U          1.219359  
         U5        1.0000    0.81105   0.97202   0.25398   Biso      1.000     U          1.282062  
         U6        1.0000    0.65073   0.19832   0.89212   Biso      1.000     U          1.211451  
         U7        1.0000    0.73607   0.89250   0.76209   Biso      1.000     U          1.222208  
         U8        1.0000    0.81105   0.52798   0.75398   Biso      1.000     U          1.274938  
         U9        1.0000    0.18895   0.02798   0.74602   Biso      1.000     U          1.276045  
         U10       1.0000    0.26393   0.39250   0.73791   Biso      1.000     U          1.213047  
         U11       1.0000    0.65073   0.30168   0.39212   Biso      1.000     U          1.212227  
         U12       1.0000    0.34927   0.80168   0.10788   Biso      1.000     U          1.2023110000000001 