
##########################################################################
#               Crystallographic Information Format file
#               Produced by PyCifRW module
#
#  This is a CIF file.  CIF has been adopted by the International
#  Union of Crystallography as the standard for data archiving and
#  transmission.
#
#  For information on this file format, follow the CIF links at
#  http://www.iucr.org
##########################################################################

data_image0

_cell_length_a                          7.412
_cell_length_b                          16.4666
_cell_length_c                          14.5028
_cell_angle_alpha                       90
_cell_angle_beta                        95.352
_cell_angle_gamma                       90
_symmetry_space_group_name_H-M          'P 1'
_symmetry_int_tables_number             1
loop_
  _symmetry_equiv_pos_as_xyz
         'x, y, z' 
loop_
  _atom_site_label
  _atom_site_occupancy
  _atom_site_fract_x
  _atom_site_fract_y
  _atom_site_fract_z
  _atom_site_thermal_displace_type
  _atom_site_B_iso_or_equiv
  _atom_site_type_symbol
  _atom_site_charge
         C1        1.0000    0.03010   0.41013   0.77859   Biso      1.000     C          0.595766  
         C2        1.0000    0.96990   0.58987   0.22141   Biso      1.000     C          0.59595   
         C3        1.0000    0.85240   0.65346   0.25962   Biso      1.000     C          -0.05142000000000001          
         C4        1.0000    0.57400   0.72252   0.28305   Biso      1.000     C          -0.12798800000000002          
         C5        1.0000    0.96840   0.83777   0.40721   Biso      1.000     C          0.6050979999999999  
         C6        1.0000    0.94340   0.71016   0.31652   Biso      1.000     C          -0.112176           
         C7        1.0000    0.66860   0.78103   0.33704   Biso      1.000     C          -0.003846           
         C8        1.0000    0.54750   0.60215   0.18155   Biso      1.000     C          0.649265  
         C9        1.0000    0.85590   0.77515   0.35303   Biso      1.000     C          -0.032717           
         C10       1.0000    0.46990   0.91013   0.72141   Biso      1.000     C          0.59577   
         C11       1.0000    0.66270   0.65991   0.24213   Biso      1.000     C          -0.049516000000000004         
         C12       1.0000    0.05740   0.65208   0.87530   Biso      1.000     C          0.650532  
         C13       1.0000    0.16270   0.84009   0.74213   Biso      1.000     C          -0.047021           
         C14       1.0000    0.35590   0.72485   0.85303   Biso      1.000     C          -0.033392000000000005         
         C15       1.0000    0.04750   0.89785   0.68155   Biso      1.000     C          0.648961  
         C16       1.0000    0.16860   0.71897   0.83704   Biso      1.000     C          -0.0043170000000000005        
         C17       1.0000    0.44340   0.78984   0.81652   Biso      1.000     C          -0.11106099999999999          
         C18       1.0000    0.46840   0.66223   0.90721   Biso      1.000     C          0.606855  
         C19       1.0000    0.07400   0.77748   0.78305   Biso      1.000     C          -0.127223           
         C20       1.0000    0.55740   0.84792   0.37530   Biso      1.000     C          0.651     
         C21       1.0000    0.14760   0.34654   0.74038   Biso      1.000     C          -0.05200900000000001          
         C22       1.0000    0.35240   0.84654   0.75962   Biso      1.000     C          -0.051479           
         C23       1.0000    0.42600   0.27748   0.71695   Biso      1.000     C          -0.127943           
         C24       1.0000    0.55660   0.21016   0.18348   Biso      1.000     C          -0.112283           
         C25       1.0000    0.83140   0.28103   0.16296   Biso      1.000     C          -0.0034659999999999995        
         C26       1.0000    0.95250   0.10215   0.31845   Biso      1.000     C          0.649249  
         C27       1.0000    0.64410   0.27515   0.14697   Biso      1.000     C          -0.032289           
         C28       1.0000    0.64760   0.15346   0.24038   Biso      1.000     C          -0.052222000000000005         
         C29       1.0000    0.83730   0.15991   0.25787   Biso      1.000     C          -0.048077999999999996         
         C30       1.0000    0.94260   0.34792   0.12470   Biso      1.000     C          0.650722  
         C31       1.0000    0.44260   0.15208   0.62470   Biso      1.000     C          0.6509149999999999  
         C32       1.0000    0.33730   0.34009   0.75787   Biso      1.000     C          -0.048235           
         C33       1.0000    0.14410   0.22485   0.64697   Biso      1.000     C          -0.032644           
         C34       1.0000    0.45250   0.39785   0.81845   Biso      1.000     C          0.649508  
         C35       1.0000    0.33140   0.21897   0.66296   Biso      1.000     C          -0.003729           
         C36       1.0000    0.05660   0.28984   0.68348   Biso      1.000     C          -0.112329           
         C37       1.0000    0.53010   0.08987   0.27859   Biso      1.000     C          0.596113  
         C38       1.0000    0.03160   0.16223   0.59279   Biso      1.000     C          0.605164  
         C39       1.0000    0.53160   0.33777   0.09279   Biso      1.000     C          0.604854  
         C40       1.0000    0.92600   0.22252   0.21695   Biso      1.000     C          -0.127968           
         Co1       1.0000    0.31099   0.87208   0.52663   Biso      1.000     Co          1.086072  
         Co2       1.0000    0.20914   0.48675   0.17671   Biso      1.000     Co          1.065994  
         Co3       1.0000    0.18901   0.37208   0.97337   Biso      1.000     Co          1.087374  
         Co4       1.0000    0.00000   0.00000   0.50000   Biso      1.000     Co          0.99113   
         Co5       1.0000    0.70914   0.01325   0.67671   Biso      1.000     Co          1.0633700000000001  
         Co6       1.0000    0.29086   0.98675   0.32329   Biso      1.000     Co          1.063707  
         Co7       1.0000    0.50000   0.50000   0.00000   Biso      1.000     Co          0.993865  
         Co8       1.0000    0.68901   0.12792   0.47337   Biso      1.000     Co          1.086782  
         Co9       1.0000    0.79086   0.51325   0.82329   Biso      1.000     Co          1.0673139999999999  
         Co10      1.0000    0.81099   0.62792   0.02663   Biso      1.000     Co          1.081475  
         H1        1.0000    0.05170   0.22540   0.22580   Biso      1.000     H          0.13553099999999998           
         H2        1.0000    0.43230   0.20440   0.16920   Biso      1.000     H          0.134641  
         H3        1.0000    0.93230   0.29560   0.66920   Biso      1.000     H          0.134649  
         H4        1.0000    0.94830   0.77460   0.77420   Biso      1.000     H          0.13561199999999998           
         H5        1.0000    0.44830   0.72540   0.27420   Biso      1.000     H          0.135407  
         H6        1.0000    0.06770   0.70440   0.33080   Biso      1.000     H          0.134653  
         H7        1.0000    0.56770   0.79560   0.83080   Biso      1.000     H          0.13478800000000002           
         H8        1.0000    0.55170   0.27460   0.72580   Biso      1.000     H          0.13551300000000002           
         O1        1.0000    0.90060   0.08472   0.39689   Biso      1.000     O          -0.554437           
         O2        1.0000    0.37310   0.31698   0.06473   Biso      1.000     O          -0.588272           
         O3        1.0000    0.09230   0.07696   0.28864   Biso      1.000     O          -0.533032           
         O4        1.0000    0.59230   0.42304   0.78864   Biso      1.000     O          -0.533999           
         O5        1.0000    0.87310   0.18302   0.56473   Biso      1.000     O          -0.5881350000000001           
         O6        1.0000    0.40060   0.41528   0.89689   Biso      1.000     O          -0.554528           
         O7        1.0000    0.93140   0.45194   0.72250   Biso      1.000     O          -0.49186  
         O8        1.0000    0.10210   0.09416   0.58245   Biso      1.000     O          -0.483515           
         O9        1.0000    0.01930   0.41761   0.86439   Biso      1.000     O          -0.5376489999999999           
         O10       1.0000    0.48600   0.89704   0.31853   Biso      1.000     O          -0.556284           
         O11       1.0000    0.46300   0.15546   0.53953   Biso      1.000     O          -0.55586  
         O12       1.0000    0.51400   0.10296   0.68147   Biso      1.000     O          -0.556344           
         O13       1.0000    0.25890   0.98344   0.46000   Biso      1.000     O          -0.742694           
         O14       1.0000    0.74110   0.01656   0.54000   Biso      1.000     O          -0.742788           
         O15       1.0000    0.90770   0.92304   0.71136   Biso      1.000     O          -0.532985           
         O16       1.0000    0.43140   0.04806   0.22250   Biso      1.000     O          -0.49007799999999996          
         O17       1.0000    0.40770   0.57696   0.21136   Biso      1.000     O          -0.531521           
         O18       1.0000    0.62690   0.68302   0.93527   Biso      1.000     O          -0.589613           
         O19       1.0000    0.96300   0.34454   0.03953   Biso      1.000     O          -0.555584           
         O20       1.0000    0.09940   0.91528   0.60311   Biso      1.000     O          -0.554321           
         O21       1.0000    0.56860   0.95194   0.77750   Biso      1.000     O          -0.490029           
         O22       1.0000    0.39790   0.59416   0.91755   Biso      1.000     O          -0.480681           
         O23       1.0000    0.48070   0.91761   0.63561   Biso      1.000     O          -0.536141           
         O24       1.0000    0.03700   0.65546   0.96047   Biso      1.000     O          -0.549216           
         O25       1.0000    0.12690   0.81698   0.43527   Biso      1.000     O          -0.58819  
         O26       1.0000    0.98600   0.60296   0.81853   Biso      1.000     O          -0.554462           
         O27       1.0000    0.75890   0.51656   0.96000   Biso      1.000     O          -0.751999           
         O28       1.0000    0.59940   0.58472   0.10311   Biso      1.000     O          -0.552579           
         O29       1.0000    0.06860   0.54806   0.27750   Biso      1.000     O          -0.493634           
         O30       1.0000    0.89790   0.90584   0.41755   Biso      1.000     O          -0.483444           
         O31       1.0000    0.98070   0.58239   0.13561   Biso      1.000     O          -0.538358           
         O32       1.0000    0.53700   0.84454   0.46047   Biso      1.000     O          -0.5560579999999999           
         O33       1.0000    0.24110   0.48344   0.04000   Biso      1.000     O          -0.7462   
         O34       1.0000    0.01400   0.39704   0.18147   Biso      1.000     O          -0.555485           
         O35       1.0000    0.51930   0.08239   0.36439   Biso      1.000     O          -0.536362           
         O36       1.0000    0.60210   0.40584   0.08245   Biso      1.000     O          -0.481914 