
##########################################################################
#               Crystallographic Information Format file
#               Produced by PyCifRW module
#
#  This is a CIF file.  CIF has been adopted by the International
#  Union of Crystallography as the standard for data archiving and
#  transmission.
#
#  For information on this file format, follow the CIF links at
#  http://www.iucr.org
##########################################################################

data_image0

_cell_length_a                          11.4319
_cell_length_b                          14.8457
_cell_length_c                          16.389
_cell_angle_alpha                       90
_cell_angle_beta                        90
_cell_angle_gamma                       90
_symmetry_space_group_name_H-M          'P 1'
_symmetry_int_tables_number             1
loop_
  _symmetry_equiv_pos_as_xyz
         'x, y, z' 
loop_
  _atom_site_label
  _atom_site_occupancy
  _atom_site_fract_x
  _atom_site_fract_y
  _atom_site_fract_z
  _atom_site_thermal_displace_type
  _atom_site_B_iso_or_equiv
  _atom_site_type_symbol
  _atom_site_charge
         C1        1.0000    0.99000   0.47160   0.76490   Biso      1.000     C          0.07687   
         C2        1.0000    0.25700   0.27690   0.73720   Biso      1.000     C          0.50699   
         C3        1.0000    0.23870   0.17650   0.75120   Biso      1.000     C          0.520446  
         C4        1.0000    0.95130   0.23530   0.95740   Biso      1.000     C          0.525889  
         C5        1.0000    0.99990   0.26010   0.04340   Biso      1.000     C          0.490826  
         C6        1.0000    0.53130   0.94920   0.20900   Biso      1.000     C          0.063351  
         C7        1.0000    0.64600   0.93200   0.32700   Biso      1.000     C          0.138468  
         C8        1.0000    0.61140   0.01490   0.35160   Biso      1.000     C          -0.080815           
         C9        1.0000    0.53200   0.06100   0.30500   Biso      1.000     C          -0.037422           
         C10       1.0000    0.49000   0.02840   0.23510   Biso      1.000     C          0.07692   
         C11       1.0000    0.39800   0.07720   0.18280   Biso      1.000     C          -0.149638           
         C12       1.0000    0.18900   0.10000   0.15240   Biso      1.000     C          -0.428393           
         C13       1.0000    0.03750   0.29760   0.48750   Biso      1.000     C          0.509003  
         C14       1.0000    0.24240   0.06850   0.29420   Biso      1.000     C          -0.430052           
         C15       1.0000    0.46250   0.70240   0.98750   Biso      1.000     C          0.509003  
         C16       1.0000    0.24300   0.72310   0.23720   Biso      1.000     C          0.50699   
         C17       1.0000    0.26130   0.82350   0.25120   Biso      1.000     C          0.520446  
         C18       1.0000    0.54870   0.76470   0.45740   Biso      1.000     C          0.525889  
         C19       1.0000    0.50010   0.73990   0.54340   Biso      1.000     C          0.490826  
         C20       1.0000    0.96870   0.05080   0.70900   Biso      1.000     C          0.063351  
         C21       1.0000    0.85400   0.06800   0.82700   Biso      1.000     C          0.138468  
         C22       1.0000    0.88860   0.98510   0.85160   Biso      1.000     C          -0.080815           
         C23       1.0000    0.96800   0.93900   0.80500   Biso      1.000     C          -0.037422           
         C24       1.0000    0.01000   0.97160   0.73510   Biso      1.000     C          0.07692   
         C25       1.0000    0.10200   0.92280   0.68280   Biso      1.000     C          -0.149638           
         C26       1.0000    0.50820   0.79820   0.00770   Biso      1.000     C          0.51408   
         C27       1.0000    0.99180   0.20180   0.50770   Biso      1.000     C          0.51408   
         C28       1.0000    0.74240   0.43150   0.70580   Biso      1.000     C          -0.430052           
         C29       1.0000    0.68900   0.40000   0.84760   Biso      1.000     C          -0.428394           
         C30       1.0000    0.00820   0.70180   0.99230   Biso      1.000     C          0.51408   
         C31       1.0000    0.96250   0.79760   0.01250   Biso      1.000     C          0.509002  
         C32       1.0000    0.74300   0.77690   0.76280   Biso      1.000     C          0.50699   
         C33       1.0000    0.76130   0.67650   0.74880   Biso      1.000     C          0.520446  
         C34       1.0000    0.04870   0.73530   0.54260   Biso      1.000     C          0.525889  
         C35       1.0000    0.00010   0.76010   0.45660   Biso      1.000     C          0.490826  
         C36       1.0000    0.46870   0.44920   0.29100   Biso      1.000     C          0.063351  
         C37       1.0000    0.35400   0.43200   0.17300   Biso      1.000     C          0.138468  
         C38       1.0000    0.38860   0.51490   0.14840   Biso      1.000     C          -0.080815           
         C39       1.0000    0.46800   0.56100   0.19500   Biso      1.000     C          -0.037422           
         C40       1.0000    0.51000   0.52840   0.26490   Biso      1.000     C          0.07692   
         C41       1.0000    0.60200   0.57720   0.31720   Biso      1.000     C          -0.149638           
         C42       1.0000    0.81100   0.60000   0.34760   Biso      1.000     C          -0.428393           
         C43       1.0000    0.75760   0.56850   0.20580   Biso      1.000     C          -0.430052           
         C44       1.0000    0.49180   0.29820   0.49230   Biso      1.000     C          0.51408   
         C45       1.0000    0.53750   0.20240   0.51250   Biso      1.000     C          0.509002  
         C46       1.0000    0.75700   0.22310   0.26280   Biso      1.000     C          0.50699   
         C47       1.0000    0.73870   0.32350   0.24880   Biso      1.000     C          0.520446  
         C48       1.0000    0.45130   0.26470   0.04260   Biso      1.000     C          0.525889  
         C49       1.0000    0.49990   0.23990   0.95660   Biso      1.000     C          0.490827  
         C50       1.0000    0.03130   0.55080   0.79100   Biso      1.000     C          0.063382  
         C51       1.0000    0.14600   0.56800   0.67300   Biso      1.000     C          0.138468  
         C52       1.0000    0.11140   0.48510   0.64840   Biso      1.000     C          -0.08082  
         C53       1.0000    0.03200   0.43900   0.69500   Biso      1.000     C          -0.037393           
         C54       1.0000    0.89800   0.42280   0.81720   Biso      1.000     C          -0.149635           
         C55       1.0000    0.31100   0.90000   0.65240   Biso      1.000     C          -0.428394           
         C56       1.0000    0.25760   0.93150   0.79420   Biso      1.000     C          -0.430052           
         Dy1       1.0000    0.27406   0.74408   0.43143   Biso      1.000     Dy          2.033801  
         Dy2       1.0000    0.22594   0.25592   0.93143   Biso      1.000     Dy          2.033801  
         Dy3       1.0000    0.72594   0.24408   0.06857   Biso      1.000     Dy          2.033801  
         Dy4       1.0000    0.76373   0.30514   0.44504   Biso      1.000     Dy          2.07893   
         Dy5       1.0000    0.77406   0.75592   0.56857   Biso      1.000     Dy          2.033801  
         Dy6       1.0000    0.73627   0.69486   0.94504   Biso      1.000     Dy          2.07893   
         Dy7       1.0000    0.23627   0.80514   0.05496   Biso      1.000     Dy          2.07893   
         Dy8       1.0000    0.26373   0.19486   0.55496   Biso      1.000     Dy          2.07893   
         H1        1.0000    0.98900   0.07230   0.65760   Biso      1.000     H          0.129246  
         H2        1.0000    0.10110   0.25270   0.29660   Biso      1.000     H          0.442691  
         H3        1.0000    0.02910   0.99270   0.03410   Biso      1.000     H          0.446087  
         H4        1.0000    0.26780   0.99490   0.19440   Biso      1.000     H          0.254673  
         H5        1.0000    0.29610   0.03360   0.32740   Biso      1.000     H          0.171521  
         H6        1.0000    0.16490   0.04340   0.30230   Biso      1.000     H          0.186581  
         H7        1.0000    0.80170   0.10140   0.85800   Biso      1.000     H          0.119437  
         H8        1.0000    0.20800   0.16360   0.14910   Biso      1.000     H          0.167201  
         H9        1.0000    0.62260   0.84630   0.24360   Biso      1.000     H          0.305411  
         H10       1.0000    0.85890   0.95990   0.89930   Biso      1.000     H          0.146233  
         H11       1.0000    0.08870   0.93790   0.62600   Biso      1.000     H          0.139926  
         H12       1.0000    0.09060   0.85830   0.68860   Biso      1.000     H          0.137642  
         H13       1.0000    0.41130   0.06210   0.12600   Biso      1.000     H          0.139925  
         H14       1.0000    0.29200   0.83640   0.64910   Biso      1.000     H          0.167201  
         H15       1.0000    0.38740   0.90540   0.67760   Biso      1.000     H          0.175754  
         H16       1.0000    0.20390   0.96640   0.82740   Biso      1.000     H          0.171521  
         H17       1.0000    0.33510   0.95660   0.80230   Biso      1.000     H          0.18658   
         H18       1.0000    0.87740   0.15370   0.74360   Biso      1.000     H          0.305411  
         H19       1.0000    0.23220   0.00510   0.69440   Biso      1.000     H          0.254673  
         H20       1.0000    0.47090   0.00730   0.53410   Biso      1.000     H          0.446087  
         H21       1.0000    0.39890   0.74730   0.79660   Biso      1.000     H          0.442691  
         H22       1.0000    0.19830   0.60140   0.64200   Biso      1.000     H          0.119437  
         H23       1.0000    0.99390   0.88290   0.82280   Biso      1.000     H          0.129501  
         H24       1.0000    0.40940   0.14170   0.18860   Biso      1.000     H          0.137642  
         H25       1.0000    0.01100   0.57230   0.84240   Biso      1.000     H          0.129244  
         H26       1.0000    0.64110   0.04010   0.39930   Biso      1.000     H          0.146233  
         H27       1.0000    0.89890   0.75270   0.20340   Biso      1.000     H          0.44269   
         H28       1.0000    0.97090   0.49270   0.46590   Biso      1.000     H          0.446087  
         H29       1.0000    0.73220   0.49490   0.30560   Biso      1.000     H          0.254673  
         H30       1.0000    0.37740   0.34630   0.25640   Biso      1.000     H          0.305411  
         H31       1.0000    0.83510   0.54340   0.19770   Biso      1.000     H          0.186581  
         H32       1.0000    0.70390   0.53360   0.17260   Biso      1.000     H          0.171521  
         H33       1.0000    0.88740   0.59460   0.32240   Biso      1.000     H          0.175753  
         H34       1.0000    0.79200   0.66360   0.35090   Biso      1.000     H          0.167201  
         H35       1.0000    0.58870   0.56210   0.37400   Biso      1.000     H          0.139925  
         H36       1.0000    0.59060   0.64170   0.31140   Biso      1.000     H          0.137642  
         H37       1.0000    0.49390   0.61710   0.17720   Biso      1.000     H          0.129502  
         H38       1.0000    0.50610   0.11710   0.32280   Biso      1.000     H          0.129502  
         H39       1.0000    0.30170   0.39860   0.14200   Biso      1.000     H          0.119437  
         H40       1.0000    0.48900   0.42770   0.34240   Biso      1.000     H          0.129246  
         H41       1.0000    0.35890   0.54010   0.10070   Biso      1.000     H          0.146233  
         H42       1.0000    0.12260   0.65370   0.75640   Biso      1.000     H          0.305411  
         H43       1.0000    0.69830   0.89860   0.35800   Biso      1.000     H          0.119437  
         H44       1.0000    0.51100   0.92770   0.15760   Biso      1.000     H          0.129246  
         H45       1.0000    0.60110   0.24730   0.70340   Biso      1.000     H          0.44269   
         H46       1.0000    0.52910   0.50730   0.96590   Biso      1.000     H          0.446087  
         H47       1.0000    0.76780   0.50510   0.80560   Biso      1.000     H          0.254673  
         H48       1.0000    0.14110   0.45990   0.60070   Biso      1.000     H          0.146233  
         H49       1.0000    0.11260   0.09460   0.17760   Biso      1.000     H          0.175753  
         H50       1.0000    0.79610   0.46640   0.67260   Biso      1.000     H          0.171521  
         H51       1.0000    0.61260   0.40540   0.82240   Biso      1.000     H          0.175754  
         H52       1.0000    0.70800   0.33640   0.85090   Biso      1.000     H          0.167201  
         H53       1.0000    0.91130   0.43790   0.87400   Biso      1.000     H          0.139925  
         H54       1.0000    0.90940   0.35830   0.81140   Biso      1.000     H          0.137641  
         H55       1.0000    0.00610   0.38290   0.67720   Biso      1.000     H          0.129499  
         H56       1.0000    0.66490   0.45660   0.69770   Biso      1.000     H          0.18658   
         N1        1.0000    0.72400   0.55490   0.29570   Biso      1.000     N          0.096173  
         N2        1.0000    0.10390   0.60000   0.74190   Biso      1.000     N          -0.121133           
         N3        1.0000    0.60390   0.90000   0.25810   Biso      1.000     N          -0.121129           
         N4        1.0000    0.27600   0.05490   0.20430   Biso      1.000     N          0.096173  
         N5        1.0000    0.89610   0.10000   0.75810   Biso      1.000     N          -0.121129           
         N6        1.0000    0.22400   0.94510   0.70430   Biso      1.000     N          0.096173  
         N7        1.0000    0.39610   0.40000   0.24190   Biso      1.000     N          -0.121129           
         N8        1.0000    0.77600   0.44510   0.79570   Biso      1.000     N          0.096173  
         O1        1.0000    0.24910   0.32730   0.80030   Biso      1.000     O          -0.666663           
         O2        1.0000    0.74910   0.17270   0.19970   Biso      1.000     O          -0.666662           
         O3        1.0000    0.77180   0.19610   0.33380   Biso      1.000     O          -0.571925           
         O4        1.0000    0.74060   0.36860   0.31300   Biso      1.000     O          -0.623389           
         O5        1.0000    0.72790   0.34970   0.17790   Biso      1.000     O          -0.571527           
         O6        1.0000    0.52840   0.26170   0.09870   Biso      1.000     O          -0.655546           
         O7        1.0000    0.34760   0.27950   0.04700   Biso      1.000     O          -0.578277           
         O8        1.0000    0.42600   0.23680   0.89970   Biso      1.000     O          -0.600216           
         O9        1.0000    0.46860   0.15040   0.54770   Biso      1.000     O          -0.656865           
         O10       1.0000    0.60720   0.22640   0.94840   Biso      1.000     O          -0.609463           
         O11       1.0000    0.73700   0.38450   0.01060   Biso      1.000     O          -0.836854           
         O12       1.0000    0.73920   0.53880   0.94870   Biso      1.000     O          -0.843661           
         O13       1.0000    0.60880   0.28940   0.67150   Biso      1.000     O          -0.683746           
         O14       1.0000    0.76760   0.32980   0.58070   Biso      1.000     O          -0.87063  
         O15       1.0000    0.81900   0.26390   0.71620   Biso      1.000     O          -0.787325           
         O16       1.0000    0.89160   0.18410   0.48630   Biso      1.000     O          -0.579531           
         O17       1.0000    0.06440   0.15280   0.54440   Biso      1.000     O          -0.640367           
         O18       1.0000    0.54970   0.45450   0.96890   Biso      1.000     O          -0.700328           
         O19       1.0000    0.13870   0.31610   0.50800   Biso      1.000     O          -0.60748  
         O20       1.0000    0.63870   0.18390   0.49200   Biso      1.000     O          -0.60748  
         O21       1.0000    0.39160   0.31590   0.51370   Biso      1.000     O          -0.579531           
         O22       1.0000    0.86130   0.81610   0.99200   Biso      1.000     O          -0.60748  
         O23       1.0000    0.03140   0.84960   0.04770   Biso      1.000     O          -0.656865           
         O24       1.0000    0.75090   0.82730   0.69970   Biso      1.000     O          -0.666663           
         O25       1.0000    0.72820   0.80390   0.83380   Biso      1.000     O          -0.571925           
         O26       1.0000    0.75940   0.63140   0.81300   Biso      1.000     O          -0.62339  
         O27       1.0000    0.77210   0.65030   0.67790   Biso      1.000     O          -0.571527           
         O28       1.0000    0.97160   0.73830   0.59870   Biso      1.000     O          -0.655546           
         O29       1.0000    0.56440   0.34720   0.45560   Biso      1.000     O          -0.640367           
         O30       1.0000    0.15240   0.72050   0.54700   Biso      1.000     O          -0.578277           
         O31       1.0000    0.89280   0.77360   0.44840   Biso      1.000     O          -0.609464           
         O32       1.0000    0.95030   0.54550   0.46890   Biso      1.000     O          -0.700328           
         O33       1.0000    0.76300   0.61550   0.51060   Biso      1.000     O          -0.836854           
         O34       1.0000    0.76080   0.46120   0.44870   Biso      1.000     O          -0.843661           
         O35       1.0000    0.89120   0.71060   0.17150   Biso      1.000     O          -0.683747           
         O36       1.0000    0.73240   0.67020   0.08070   Biso      1.000     O          -0.87063  
         O37       1.0000    0.68100   0.73610   0.21620   Biso      1.000     O          -0.787325           
         O38       1.0000    0.07400   0.76320   0.39970   Biso      1.000     O          -0.600216           
         O39       1.0000    0.96860   0.34960   0.45230   Biso      1.000     O          -0.656865           
         O40       1.0000    0.10840   0.68410   0.01370   Biso      1.000     O          -0.579531           
         O41       1.0000    0.27180   0.30390   0.66620   Biso      1.000     O          -0.571926           
         O42       1.0000    0.93560   0.65280   0.95560   Biso      1.000     O          -0.640368           
         O43       1.0000    0.18100   0.76390   0.78380   Biso      1.000     O          -0.787324           
         O44       1.0000    0.23240   0.82980   0.91930   Biso      1.000     O          -0.87063  
         O45       1.0000    0.39120   0.78940   0.82850   Biso      1.000     O          -0.683747           
         O46       1.0000    0.26080   0.03880   0.55130   Biso      1.000     O          -0.843661           
         O47       1.0000    0.26300   0.88450   0.48940   Biso      1.000     O          -0.836854           
         O48       1.0000    0.45030   0.95450   0.53110   Biso      1.000     O          -0.700328           
         O49       1.0000    0.39280   0.72640   0.55160   Biso      1.000     O          -0.609464           
         O50       1.0000    0.57400   0.73680   0.60030   Biso      1.000     O          -0.600216           
         O51       1.0000    0.65240   0.77950   0.45300   Biso      1.000     O          -0.578277           
         O52       1.0000    0.47160   0.76170   0.40130   Biso      1.000     O          -0.655546           
         O53       1.0000    0.27210   0.84970   0.32210   Biso      1.000     O          -0.571528           
         O54       1.0000    0.22820   0.69610   0.16620   Biso      1.000     O          -0.571925           
         O55       1.0000    0.25090   0.67270   0.30030   Biso      1.000     O          -0.666663           
         O56       1.0000    0.53140   0.65040   0.95230   Biso      1.000     O          -0.656865           
         O57       1.0000    0.25940   0.86860   0.18700   Biso      1.000     O          -0.623389           
         O58       1.0000    0.43560   0.84720   0.04440   Biso      1.000     O          -0.640367           
         O59       1.0000    0.24060   0.13140   0.68700   Biso      1.000     O          -0.623389           
         O60       1.0000    0.22790   0.15030   0.82210   Biso      1.000     O          -0.571527           
         O61       1.0000    0.02840   0.23830   0.90130   Biso      1.000     O          -0.655545           
         O62       1.0000    0.36130   0.68390   0.00800   Biso      1.000     O          -0.60748  
         O63       1.0000    0.92600   0.26320   0.10030   Biso      1.000     O          -0.600216           
         O64       1.0000    0.10720   0.27360   0.05160   Biso      1.000     O          -0.609463           
         O65       1.0000    0.04970   0.04550   0.03110   Biso      1.000     O          -0.700328           
         O66       1.0000    0.84760   0.22050   0.95300   Biso      1.000     O          -0.578277           
         O67       1.0000    0.23920   0.96120   0.05130   Biso      1.000     O          -0.843661           
         O68       1.0000    0.10880   0.21060   0.32850   Biso      1.000     O          -0.683747           
         O69       1.0000    0.26760   0.17020   0.41930   Biso      1.000     O          -0.87063  
         O70       1.0000    0.31900   0.23610   0.28380   Biso      1.000     O          -0.787325           
         O71       1.0000    0.60840   0.81590   0.98630   Biso      1.000     O          -0.579531           
         O72       1.0000    0.23700   0.11550   0.98940   Biso      1.000     O          -0.836853           
         P1        1.0000    0.25830   0.81780   0.83240   Biso      1.000     P          1.412296  
         P2        1.0000    0.81750   0.55230   0.45270   Biso      1.000     P          1.412169  
         P3        1.0000    0.75830   0.68220   0.16760   Biso      1.000     P          1.412296  
         P4        1.0000    0.68250   0.44770   0.95270   Biso      1.000     P          1.412169  
         P5        1.0000    0.74170   0.31780   0.66760   Biso      1.000     P          1.412296  
         P6        1.0000    0.18250   0.05230   0.04730   Biso      1.000     P          1.412169  
         P7        1.0000    0.24170   0.18220   0.33240   Biso      1.000     P          1.412296  
         P8        1.0000    0.31750   0.94770   0.54730   Biso      1.000     P          1.412169 