
##########################################################################
#               Crystallographic Information Format file
#               Produced by PyCifRW module
#
#  This is a CIF file.  CIF has been adopted by the International
#  Union of Crystallography as the standard for data archiving and
#  transmission.
#
#  For information on this file format, follow the CIF links at
#  http://www.iucr.org
##########################################################################

data_image0

_cell_length_a                          11.358
_cell_length_b                          14.829
_cell_length_c                          16.325
_cell_angle_alpha                       90
_cell_angle_beta                        90
_cell_angle_gamma                       90
_symmetry_space_group_name_H-M          'P 1'
_symmetry_int_tables_number             1
loop_
  _symmetry_equiv_pos_as_xyz
         'x, y, z' 
loop_
  _atom_site_label
  _atom_site_occupancy
  _atom_site_fract_x
  _atom_site_fract_y
  _atom_site_fract_z
  _atom_site_thermal_displace_type
  _atom_site_B_iso_or_equiv
  _atom_site_type_symbol
  _atom_site_charge
         C1        1.0000    0.98750   0.47020   0.76680   Biso      1.000     C          0.074157  
         C2        1.0000    0.04160   0.29740   0.48780   Biso      1.000     C          0.490736  
         C3        1.0000    0.25360   0.27740   0.73710   Biso      1.000     C          0.488364  
         C4        1.0000    0.23820   0.17610   0.75040   Biso      1.000     C          0.500442  
         C5        1.0000    0.94950   0.23680   0.95900   Biso      1.000     C          0.492403  
         C6        1.0000    0.99810   0.26030   0.04340   Biso      1.000     C          0.494588  
         C7        1.0000    0.52420   0.94490   0.20940   Biso      1.000     C          0.073679  
         C8        1.0000    0.64520   0.93300   0.32890   Biso      1.000     C          0.122943  
         C9        1.0000    0.60600   0.01350   0.35440   Biso      1.000     C          -0.086173           
         C10       1.0000    0.52680   0.06460   0.30370   Biso      1.000     C          -0.040381           
         C11       1.0000    0.48750   0.02980   0.23320   Biso      1.000     C          0.074182  
         C12       1.0000    0.39770   0.07620   0.18110   Biso      1.000     C          -0.153995           
         C13       1.0000    0.99420   0.20260   0.50850   Biso      1.000     C          0.502875  
         C14       1.0000    0.18660   0.10080   0.15160   Biso      1.000     C          -0.430429           
         C15       1.0000    0.50580   0.79740   0.00850   Biso      1.000     C          0.502875  
         C16       1.0000    0.45840   0.70260   0.98780   Biso      1.000     C          0.490736  
         C17       1.0000    0.24640   0.72260   0.23710   Biso      1.000     C          0.488364  
         C18       1.0000    0.26180   0.82390   0.25040   Biso      1.000     C          0.500442  
         C19       1.0000    0.50190   0.73970   0.54340   Biso      1.000     C          0.494588  
         C20       1.0000    0.97580   0.05510   0.70940   Biso      1.000     C          0.073679  
         C21       1.0000    0.85480   0.06700   0.82890   Biso      1.000     C          0.122943  
         C22       1.0000    0.89400   0.98650   0.85440   Biso      1.000     C          -0.086173           
         C23       1.0000    0.97320   0.93540   0.80370   Biso      1.000     C          -0.040381           
         C24       1.0000    0.01250   0.97020   0.73320   Biso      1.000     C          0.074182  
         C25       1.0000    0.10230   0.92380   0.68110   Biso      1.000     C          -0.153995           
         C26       1.0000    0.24360   0.06730   0.29390   Biso      1.000     C          -0.422211           
         C27       1.0000    0.31340   0.89920   0.65160   Biso      1.000     C          -0.430429           
         C28       1.0000    0.74360   0.43270   0.70610   Biso      1.000     C          -0.422211           
         C29       1.0000    0.89770   0.42380   0.81890   Biso      1.000     C          -0.153993           
         C30       1.0000    0.00580   0.70260   0.99150   Biso      1.000     C          0.502875  
         C31       1.0000    0.95840   0.79740   0.01220   Biso      1.000     C          0.490736  
         C32       1.0000    0.74640   0.77740   0.76290   Biso      1.000     C          0.488364  
         C33       1.0000    0.76180   0.67610   0.74960   Biso      1.000     C          0.500442  
         C34       1.0000    0.05050   0.73680   0.54100   Biso      1.000     C          0.492403  
         C35       1.0000    0.00190   0.76030   0.45660   Biso      1.000     C          0.494588  
         C36       1.0000    0.47580   0.44490   0.29060   Biso      1.000     C          0.073679  
         C37       1.0000    0.35480   0.43300   0.17110   Biso      1.000     C          0.122943  
         C38       1.0000    0.39400   0.51350   0.14560   Biso      1.000     C          -0.086173           
         C39       1.0000    0.47320   0.56460   0.19630   Biso      1.000     C          -0.040381           
         C40       1.0000    0.51250   0.52980   0.26680   Biso      1.000     C          0.074182  
         C41       1.0000    0.68660   0.39920   0.84840   Biso      1.000     C          -0.430429           
         C42       1.0000    0.60230   0.57620   0.31890   Biso      1.000     C          -0.153995           
         C43       1.0000    0.75640   0.56730   0.20610   Biso      1.000     C          -0.422211           
         C44       1.0000    0.49420   0.29740   0.49150   Biso      1.000     C          0.502875  
         C45       1.0000    0.54160   0.20260   0.51220   Biso      1.000     C          0.490736  
         C46       1.0000    0.75360   0.22260   0.26290   Biso      1.000     C          0.488364  
         C47       1.0000    0.73820   0.32390   0.24960   Biso      1.000     C          0.500442  
         C48       1.0000    0.44950   0.26320   0.04100   Biso      1.000     C          0.492403  
         C49       1.0000    0.49810   0.23970   0.95660   Biso      1.000     C          0.494588  
         C50       1.0000    0.02420   0.55510   0.79060   Biso      1.000     C          0.073684  
         C51       1.0000    0.14520   0.56700   0.67110   Biso      1.000     C          0.122943  
         C52       1.0000    0.10600   0.48650   0.64560   Biso      1.000     C          -0.086177           
         C53       1.0000    0.02680   0.43540   0.69630   Biso      1.000     C          -0.040355           
         C54       1.0000    0.81340   0.60080   0.34840   Biso      1.000     C          -0.430429           
         C55       1.0000    0.25640   0.93270   0.79390   Biso      1.000     C          -0.422211           
         C56       1.0000    0.55050   0.76320   0.45900   Biso      1.000     C          0.492403  
         H1        1.0000    0.19960   0.59910   0.64000   Biso      1.000     H          0.122288  
         H2        1.0000    0.50280   0.12180   0.31990   Biso      1.000     H          0.133645  
         H3        1.0000    0.41070   0.05970   0.12430   Biso      1.000     H          0.139549  
         H4        1.0000    0.40860   0.14090   0.18580   Biso      1.000     H          0.139686  
         H5        1.0000    0.20850   0.16380   0.14770   Biso      1.000     H          0.167926  
         H6        1.0000    0.10940   0.09760   0.17690   Biso      1.000     H          0.175183  
         H7        1.0000    0.29960   0.03280   0.32600   Biso      1.000     H          0.167832  
         H8        1.0000    0.16630   0.04170   0.30390   Biso      1.000     H          0.186127  
         H9        1.0000    0.62940   0.84710   0.24070   Biso      1.000     H          0.307441  
         H10       1.0000    0.26360   0.99330   0.19410   Biso      1.000     H          0.253082  
         H11       1.0000    0.02320   0.99530   0.03290   Biso      1.000     H          0.444512  
         H12       1.0000    0.10250   0.25260   0.29720   Biso      1.000     H          0.446207  
         H13       1.0000    0.00500   0.08100   0.66170   Biso      1.000     H          0.129081  
         H14       1.0000    0.80040   0.09910   0.86000   Biso      1.000     H          0.122288  
         H15       1.0000    0.87000   0.96370   0.90480   Biso      1.000     H          0.144249  
         H16       1.0000    0.99720   0.87820   0.81990   Biso      1.000     H          0.133645  
         H17       1.0000    0.08930   0.94030   0.62430   Biso      1.000     H          0.139549  
         H18       1.0000    0.09140   0.85910   0.68580   Biso      1.000     H          0.139686  
         H19       1.0000    0.29150   0.83620   0.64770   Biso      1.000     H          0.167926  
         H20       1.0000    0.39060   0.90240   0.67690   Biso      1.000     H          0.175183  
         H21       1.0000    0.20040   0.96720   0.82600   Biso      1.000     H          0.167832  
         H22       1.0000    0.33370   0.95830   0.80390   Biso      1.000     H          0.186127  
         H23       1.0000    0.13000   0.46370   0.59520   Biso      1.000     H          0.144249  
         H24       1.0000    0.23640   0.00670   0.69410   Biso      1.000     H          0.253082  
         H25       1.0000    0.47680   0.00470   0.53290   Biso      1.000     H          0.444512  
         H26       1.0000    0.39750   0.74740   0.79720   Biso      1.000     H          0.446207  
         H27       1.0000    0.63000   0.03630   0.40480   Biso      1.000     H          0.144249  
         H28       1.0000    0.69960   0.90090   0.36000   Biso      1.000     H          0.122288  
         H29       1.0000    0.87060   0.15290   0.74070   Biso      1.000     H          0.307441  
         H30       1.0000    0.60250   0.24740   0.70280   Biso      1.000     H          0.446207  
         H31       1.0000    0.49500   0.91900   0.16170   Biso      1.000     H          0.129081  
         H32       1.0000    0.89750   0.75260   0.20280   Biso      1.000     H          0.446207  
         H33       1.0000    0.97680   0.49530   0.46710   Biso      1.000     H          0.444512  
         H34       1.0000    0.73640   0.49330   0.30590   Biso      1.000     H          0.253082  
         H35       1.0000    0.37060   0.34710   0.25930   Biso      1.000     H          0.307441  
         H36       1.0000    0.83370   0.54170   0.19610   Biso      1.000     H          0.186127  
         H37       1.0000    0.70040   0.53280   0.17400   Biso      1.000     H          0.167832  
         H38       1.0000    0.89060   0.59760   0.32310   Biso      1.000     H          0.175183  
         H39       1.0000    0.79150   0.66380   0.35230   Biso      1.000     H          0.167926  
         H40       1.0000    0.59140   0.64090   0.31420   Biso      1.000     H          0.139686  
         H41       1.0000    0.58930   0.55970   0.37570   Biso      1.000     H          0.139549  
         H42       1.0000    0.49720   0.62180   0.18010   Biso      1.000     H          0.133645  
         H43       1.0000    0.37000   0.53630   0.09520   Biso      1.000     H          0.144249  
         H44       1.0000    0.99500   0.58100   0.83830   Biso      1.000     H          0.129081  
         H45       1.0000    0.50500   0.41900   0.33830   Biso      1.000     H          0.129081  
         H46       1.0000    0.00280   0.37820   0.68010   Biso      1.000     H          0.133643  
         H47       1.0000    0.91070   0.44030   0.87570   Biso      1.000     H          0.139549  
         H48       1.0000    0.90860   0.35910   0.81420   Biso      1.000     H          0.139686  
         H49       1.0000    0.70850   0.33620   0.85230   Biso      1.000     H          0.167926  
         H50       1.0000    0.60940   0.40240   0.82310   Biso      1.000     H          0.175183  
         H51       1.0000    0.79960   0.46720   0.67400   Biso      1.000     H          0.167832  
         H52       1.0000    0.66630   0.45830   0.69610   Biso      1.000     H          0.186127  
         H53       1.0000    0.12940   0.65290   0.75930   Biso      1.000     H          0.307441  
         H54       1.0000    0.76360   0.50670   0.80590   Biso      1.000     H          0.253082  
         H55       1.0000    0.30040   0.40090   0.14000   Biso      1.000     H          0.122288  
         H56       1.0000    0.52320   0.50470   0.96710   Biso      1.000     H          0.444512  
         N1        1.0000    0.22720   0.94680   0.70420   Biso      1.000     N          0.088436  
         N2        1.0000    0.89560   0.10110   0.75700   Biso      1.000     N          -0.130263           
         N3        1.0000    0.27280   0.05320   0.20420   Biso      1.000     N          0.088436  
         N4        1.0000    0.60440   0.89890   0.25700   Biso      1.000     N          -0.130263           
         N5        1.0000    0.39560   0.39890   0.24300   Biso      1.000     N          -0.130263           
         N6        1.0000    0.10440   0.60110   0.74300   Biso      1.000     N          -0.130264           
         N7        1.0000    0.72720   0.55320   0.29580   Biso      1.000     N          0.088436  
         N8        1.0000    0.77280   0.44680   0.79580   Biso      1.000     N          0.088436  
         O1        1.0000    0.52580   0.26280   0.10080   Biso      1.000     O          -0.611197           
         O2        1.0000    0.72240   0.34990   0.17810   Biso      1.000     O          -0.539121           
         O3        1.0000    0.34530   0.27830   0.04800   Biso      1.000     O          -0.524013           
         O4        1.0000    0.42250   0.23480   0.90080   Biso      1.000     O          -0.558276           
         O5        1.0000    0.60650   0.22560   0.94930   Biso      1.000     O          -0.568858           
         O6        1.0000    0.77290   0.32920   0.57970   Biso      1.000     O          -0.805147           
         O7        1.0000    0.73190   0.38430   0.01250   Biso      1.000     O          -0.79685  
         O8        1.0000    0.73540   0.53970   0.95010   Biso      1.000     O          -0.790369           
         O9        1.0000    0.61050   0.28960   0.67090   Biso      1.000     O          -0.673507           
         O10       1.0000    0.82290   0.26070   0.71790   Biso      1.000     O          -0.78123  
         O11       1.0000    0.89340   0.18410   0.48680   Biso      1.000     O          -0.547797           
         O12       1.0000    0.06570   0.15290   0.54320   Biso      1.000     O          -0.586395           
         O13       1.0000    0.14250   0.31560   0.50680   Biso      1.000     O          -0.543739           
         O14       1.0000    0.96920   0.34940   0.45120   Biso      1.000     O          -0.631956           
         O15       1.0000    0.25070   0.32680   0.80070   Biso      1.000     O          -0.605121           
         O16       1.0000    0.74010   0.36950   0.31350   Biso      1.000     O          -0.568949           
         O17       1.0000    0.24010   0.13050   0.68650   Biso      1.000     O          -0.568949           
         O18       1.0000    0.27380   0.30300   0.66520   Biso      1.000     O          -0.537818           
         O19       1.0000    0.54560   0.45230   0.96980   Biso      1.000     O          -0.696421           
         O20       1.0000    0.77380   0.19700   0.33480   Biso      1.000     O          -0.537818           
         O21       1.0000    0.75990   0.63050   0.81350   Biso      1.000     O          -0.56895  
         O22       1.0000    0.46920   0.15060   0.54880   Biso      1.000     O          -0.631956           
         O23       1.0000    0.22240   0.15010   0.82190   Biso      1.000     O          -0.539121           
         O24       1.0000    0.67710   0.73930   0.21790   Biso      1.000     O          -0.781229           
         O25       1.0000    0.72710   0.67080   0.07970   Biso      1.000     O          -0.805147           
         O26       1.0000    0.88950   0.71040   0.17090   Biso      1.000     O          -0.673507           
         O27       1.0000    0.76460   0.46030   0.45010   Biso      1.000     O          -0.790369           
         O28       1.0000    0.76810   0.61570   0.51250   Biso      1.000     O          -0.79685  
         O29       1.0000    0.95440   0.54770   0.46980   Biso      1.000     O          -0.696421           
         O30       1.0000    0.89350   0.77440   0.44930   Biso      1.000     O          -0.568858           
         O31       1.0000    0.07750   0.76520   0.40080   Biso      1.000     O          -0.558276           
         O32       1.0000    0.15470   0.72170   0.54800   Biso      1.000     O          -0.524013           
         O33       1.0000    0.97420   0.73720   0.60080   Biso      1.000     O          -0.611197           
         O34       1.0000    0.77760   0.65010   0.67810   Biso      1.000     O          -0.539121           
         O35       1.0000    0.72620   0.80300   0.83480   Biso      1.000     O          -0.537818           
         O36       1.0000    0.74930   0.82680   0.69930   Biso      1.000     O          -0.605121           
         O37       1.0000    0.03080   0.84940   0.04880   Biso      1.000     O          -0.631956           
         O38       1.0000    0.85750   0.81560   0.99320   Biso      1.000     O          -0.543739           
         O39       1.0000    0.39340   0.31590   0.51320   Biso      1.000     O          -0.547797           
         O40       1.0000    0.56570   0.34710   0.45680   Biso      1.000     O          -0.586396           
         O41       1.0000    0.64250   0.18440   0.49320   Biso      1.000     O          -0.543739           
         O42       1.0000    0.75070   0.17320   0.19930   Biso      1.000     O          -0.605121           
         O43       1.0000    0.02580   0.23720   0.89920   Biso      1.000     O          -0.611197           
         O44       1.0000    0.10660   0.68410   0.01320   Biso      1.000     O          -0.547797           
         O45       1.0000    0.92250   0.26520   0.09920   Biso      1.000     O          -0.558276           
         O46       1.0000    0.93430   0.65290   0.95680   Biso      1.000     O          -0.586396           
         O47       1.0000    0.17710   0.76070   0.78210   Biso      1.000     O          -0.781229           
         O48       1.0000    0.22710   0.82920   0.92030   Biso      1.000     O          -0.805147           
         O49       1.0000    0.38950   0.78960   0.82910   Biso      1.000     O          -0.673507           
         O50       1.0000    0.26460   0.03970   0.54990   Biso      1.000     O          -0.790369           
         O51       1.0000    0.84530   0.22170   0.95200   Biso      1.000     O          -0.524013           
         O52       1.0000    0.45440   0.95230   0.53020   Biso      1.000     O          -0.696421           
         O53       1.0000    0.39350   0.72560   0.55070   Biso      1.000     O          -0.568858           
         O54       1.0000    0.57750   0.73480   0.59920   Biso      1.000     O          -0.558276           
         O55       1.0000    0.65470   0.77830   0.45200   Biso      1.000     O          -0.524013           
         O56       1.0000    0.47420   0.76280   0.39920   Biso      1.000     O          -0.611197           
         O57       1.0000    0.27760   0.84990   0.32190   Biso      1.000     O          -0.539121           
         O58       1.0000    0.25990   0.86950   0.18650   Biso      1.000     O          -0.568949           
         O59       1.0000    0.26810   0.88430   0.48750   Biso      1.000     O          -0.79685  
         O60       1.0000    0.24930   0.67320   0.30070   Biso      1.000     O          -0.605121           
         O61       1.0000    0.53080   0.65060   0.95120   Biso      1.000     O          -0.631956           
         O62       1.0000    0.35750   0.68440   0.00680   Biso      1.000     O          -0.543739           
         O63       1.0000    0.43430   0.84710   0.04320   Biso      1.000     O          -0.586396           
         O64       1.0000    0.60660   0.81590   0.98680   Biso      1.000     O          -0.547797           
         O65       1.0000    0.32290   0.23930   0.28210   Biso      1.000     O          -0.781229           
         O66       1.0000    0.27290   0.17080   0.42030   Biso      1.000     O          -0.805147           
         O67       1.0000    0.11050   0.21040   0.32910   Biso      1.000     O          -0.673507           
         O68       1.0000    0.23540   0.96030   0.04990   Biso      1.000     O          -0.790369           
         O69       1.0000    0.23190   0.11570   0.98750   Biso      1.000     O          -0.79685  
         O70       1.0000    0.04560   0.04770   0.03020   Biso      1.000     O          -0.696421           
         O71       1.0000    0.10650   0.27440   0.05070   Biso      1.000     O          -0.568858           
         O72       1.0000    0.22620   0.69700   0.16520   Biso      1.000     O          -0.537818           
         P1        1.0000    0.25660   0.81774   0.83253   Biso      1.000     P          1.364855  
         P2        1.0000    0.32140   0.94820   0.54687   Biso      1.000     P          1.385774  
         P3        1.0000    0.24340   0.18226   0.33253   Biso      1.000     P          1.364855  
         P4        1.0000    0.67860   0.44820   0.95313   Biso      1.000     P          1.385774  
         P5        1.0000    0.74340   0.31774   0.66747   Biso      1.000     P          1.364855  
         P6        1.0000    0.75660   0.68226   0.16747   Biso      1.000     P          1.364855  
         P7        1.0000    0.82140   0.55180   0.45313   Biso      1.000     P          1.385774  
         P8        1.0000    0.17860   0.05180   0.04687   Biso      1.000     P          1.385774  
         Y1        1.0000    0.73280   0.69497   0.94548   Biso      1.000     Y          1.796786  
         Y2        1.0000    0.77555   0.75503   0.56866   Biso      1.000     Y          1.797345  
         Y3        1.0000    0.76720   0.30503   0.44548   Biso      1.000     Y          1.796786  
         Y4        1.0000    0.72445   0.24497   0.06866   Biso      1.000     Y          1.797345  
         Y5        1.0000    0.26720   0.19497   0.55452   Biso      1.000     Y          1.796786  
         Y6        1.0000    0.22445   0.25503   0.93134   Biso      1.000     Y          1.797345  
         Y7        1.0000    0.23280   0.80503   0.05452   Biso      1.000     Y          1.796786  
         Y8        1.0000    0.27555   0.74497   0.43134   Biso      1.000     Y          1.797345 