
##########################################################################
#               Crystallographic Information Format file
#               Produced by PyCifRW module
#
#  This is a CIF file.  CIF has been adopted by the International
#  Union of Crystallography as the standard for data archiving and
#  transmission.
#
#  For information on this file format, follow the CIF links at
#  http://www.iucr.org
##########################################################################

data_image0

_cell_length_a                          11.2506
_cell_length_b                          14.8354
_cell_length_c                          16.1843
_cell_angle_alpha                       90
_cell_angle_beta                        90
_cell_angle_gamma                       90
_symmetry_space_group_name_H-M          'P 1'
_symmetry_int_tables_number             1
loop_
  _symmetry_equiv_pos_as_xyz
         'x, y, z' 
loop_
  _atom_site_label
  _atom_site_occupancy
  _atom_site_fract_x
  _atom_site_fract_y
  _atom_site_fract_z
  _atom_site_thermal_displace_type
  _atom_site_B_iso_or_equiv
  _atom_site_type_symbol
  _atom_site_charge
         C1        1.0000    0.99270   0.47280   0.76250   Biso      1.000     C          0.068781  
         C2        1.0000    0.40030   0.07890   0.18540   Biso      1.000     C          -0.153886           
         C3        1.0000    0.19110   0.09710   0.15080   Biso      1.000     C          -0.43149  
         C4        1.0000    0.24730   0.06620   0.29450   Biso      1.000     C          -0.424362           
         C5        1.0000    0.51540   0.79580   0.00600   Biso      1.000     C          0.464606  
         C6        1.0000    0.46940   0.70170   0.98620   Biso      1.000     C          0.501902  
         C7        1.0000    0.24810   0.72330   0.23650   Biso      1.000     C          0.497395  
         C8        1.0000    0.26310   0.82230   0.25010   Biso      1.000     C          0.481649  
         C9        1.0000    0.49270   0.02720   0.23750   Biso      1.000     C          0.068783  
         C10       1.0000    0.54580   0.76620   0.45670   Biso      1.000     C          0.502375  
         C11       1.0000    0.97030   0.05270   0.71150   Biso      1.000     C          0.047086  
         C12       1.0000    0.84800   0.06810   0.83060   Biso      1.000     C          0.14918   
         C13       1.0000    0.88310   0.98380   0.85490   Biso      1.000     C          -0.091928           
         C14       1.0000    0.96060   0.93530   0.80960   Biso      1.000     C          -0.037026           
         C15       1.0000    0.00730   0.97280   0.73750   Biso      1.000     C          0.068816  
         C16       1.0000    0.09970   0.92110   0.68540   Biso      1.000     C          -0.153889           
         C17       1.0000    0.30890   0.90290   0.65080   Biso      1.000     C          -0.431492           
         C18       1.0000    0.49850   0.74370   0.54390   Biso      1.000     C          0.471468  
         C19       1.0000    0.53940   0.06470   0.30960   Biso      1.000     C          -0.037041           
         C20       1.0000    0.61690   0.01620   0.35490   Biso      1.000     C          -0.091912           
         C21       1.0000    0.65200   0.93190   0.33060   Biso      1.000     C          0.149182  
         C22       1.0000    0.45420   0.26620   0.04330   Biso      1.000     C          0.502376  
         C23       1.0000    0.50150   0.24370   0.95610   Biso      1.000     C          0.471467  
         C24       1.0000    0.02970   0.55270   0.78850   Biso      1.000     C          0.047124  
         C25       1.0000    0.15200   0.56810   0.66940   Biso      1.000     C          0.149181  
         C26       1.0000    0.11690   0.48380   0.64510   Biso      1.000     C          -0.091928           
         C27       1.0000    0.03940   0.43530   0.69040   Biso      1.000     C          -0.037021           
         C28       1.0000    0.53060   0.20170   0.51380   Biso      1.000     C          0.501903  
         C29       1.0000    0.90030   0.42110   0.81460   Biso      1.000     C          -0.153885           
         C30       1.0000    0.69110   0.40290   0.84920   Biso      1.000     C          -0.431493           
         C31       1.0000    0.74730   0.43380   0.70550   Biso      1.000     C          -0.424361           
         C32       1.0000    0.98460   0.20420   0.50600   Biso      1.000     C          0.464607  
         C33       1.0000    0.03060   0.29830   0.48620   Biso      1.000     C          0.501902  
         C34       1.0000    0.25190   0.27670   0.73650   Biso      1.000     C          0.497396  
         C35       1.0000    0.23690   0.17770   0.75010   Biso      1.000     C          0.481648  
         C36       1.0000    0.95420   0.23380   0.95670   Biso      1.000     C          0.502375  
         C37       1.0000    0.00150   0.25630   0.04390   Biso      1.000     C          0.471468  
         C38       1.0000    0.52970   0.94730   0.21150   Biso      1.000     C          0.047124  
         C39       1.0000    0.25270   0.93380   0.79450   Biso      1.000     C          -0.424361           
         C40       1.0000    0.73690   0.32230   0.24990   Biso      1.000     C          0.481648  
         C41       1.0000    0.75190   0.22330   0.26350   Biso      1.000     C          0.497396  
         C42       1.0000    0.50730   0.52720   0.26250   Biso      1.000     C          0.068783  
         C43       1.0000    0.48460   0.29580   0.49400   Biso      1.000     C          0.464606  
         C44       1.0000    0.75270   0.56620   0.20550   Biso      1.000     C          -0.424362           
         C45       1.0000    0.80890   0.59710   0.34920   Biso      1.000     C          -0.431492           
         C46       1.0000    0.59970   0.57890   0.31460   Biso      1.000     C          -0.153886           
         C47       1.0000    0.46060   0.56470   0.19040   Biso      1.000     C          -0.03704  
         C48       1.0000    0.38310   0.51620   0.14510   Biso      1.000     C          -0.091913           
         C49       1.0000    0.34800   0.43190   0.16940   Biso      1.000     C          0.149181  
         C50       1.0000    0.99850   0.75630   0.45610   Biso      1.000     C          0.471467  
         C51       1.0000    0.04580   0.73380   0.54330   Biso      1.000     C          0.502376  
         C52       1.0000    0.76310   0.67770   0.74990   Biso      1.000     C          0.481648  
         C53       1.0000    0.74810   0.77670   0.76350   Biso      1.000     C          0.497396  
         C54       1.0000    0.96940   0.79830   0.01380   Biso      1.000     C          0.501903  
         C55       1.0000    0.01540   0.70420   0.99400   Biso      1.000     C          0.464606  
         C56       1.0000    0.47030   0.44730   0.28850   Biso      1.000     C          0.047124  
         H1        1.0000    0.79700   0.10190   0.86350   Biso      1.000     H          0.116816  
         H2        1.0000    0.85280   0.95950   0.90350   Biso      1.000     H          0.140789  
         H3        1.0000    0.99960   0.07710   0.66260   Biso      1.000     H          0.132837  
         H4        1.0000    0.64720   0.04050   0.40350   Biso      1.000     H          0.140789  
         H5        1.0000    0.03400   0.98820   0.02870   Biso      1.000     H          0.440293  
         H6        1.0000    0.27260   0.99300   0.19580   Biso      1.000     H          0.252078  
         H7        1.0000    0.98280   0.87770   0.82630   Biso      1.000     H          0.133056  
         H8        1.0000    0.09600   0.24880   0.29410   Biso      1.000     H          0.44394   
         H9        1.0000    0.08990   0.85690   0.69450   Biso      1.000     H          0.138614  
         H10       1.0000    0.46600   0.01180   0.52870   Biso      1.000     H          0.440293  
         H11       1.0000    0.29050   0.83910   0.64730   Biso      1.000     H          0.166813  
         H12       1.0000    0.38740   0.90860   0.67510   Biso      1.000     H          0.17477   
         H13       1.0000    0.19270   0.96460   0.82700   Biso      1.000     H          0.164905  
         H14       1.0000    0.32780   0.96370   0.80510   Biso      1.000     H          0.18503   
         H15       1.0000    0.86290   0.15210   0.74230   Biso      1.000     H          0.307608  
         H16       1.0000    0.22740   0.00700   0.69580   Biso      1.000     H          0.252077  
         H17       1.0000    0.63710   0.84790   0.24230   Biso      1.000     H          0.307608  
         H18       1.0000    0.40400   0.75120   0.79410   Biso      1.000     H          0.44394   
         H19       1.0000    0.08530   0.93300   0.62730   Biso      1.000     H          0.136776  
         H20       1.0000    0.51720   0.12230   0.32630   Biso      1.000     H          0.133057  
         H21       1.0000    0.17220   0.03630   0.30510   Biso      1.000     H          0.185032  
         H22       1.0000    0.11260   0.09140   0.17510   Biso      1.000     H          0.174769  
         H23       1.0000    0.41010   0.14310   0.19450   Biso      1.000     H          0.138614  
         H24       1.0000    0.01720   0.37770   0.67370   Biso      1.000     H          0.133055  
         H25       1.0000    0.91010   0.35690   0.80550   Biso      1.000     H          0.138614  
         H26       1.0000    0.91470   0.43300   0.87270   Biso      1.000     H          0.136776  
         H27       1.0000    0.70950   0.33910   0.85270   Biso      1.000     H          0.166814  
         H28       1.0000    0.61260   0.40860   0.82490   Biso      1.000     H          0.174771  
         H29       1.0000    0.20300   0.60190   0.63650   Biso      1.000     H          0.116816  
         H30       1.0000    0.80730   0.46460   0.67300   Biso      1.000     H          0.164905  
         H31       1.0000    0.13710   0.65210   0.75770   Biso      1.000     H          0.307608  
         H32       1.0000    0.77260   0.50700   0.80420   Biso      1.000     H          0.252077  
         H33       1.0000    0.53400   0.51180   0.97130   Biso      1.000     H          0.440293  
         H34       1.0000    0.59600   0.25120   0.70590   Biso      1.000     H          0.44394   
         H35       1.0000    0.50040   0.92290   0.16260   Biso      1.000     H          0.132835  
         H36       1.0000    0.70300   0.89810   0.36350   Biso      1.000     H          0.116816  
         H37       1.0000    0.67220   0.46370   0.69490   Biso      1.000     H          0.185031  
         H38       1.0000    0.30730   0.03540   0.32700   Biso      1.000     H          0.164906  
         H39       1.0000    0.00040   0.57710   0.83740   Biso      1.000     H          0.132835  
         H40       1.0000    0.96600   0.48820   0.47130   Biso      1.000     H          0.440292  
         H41       1.0000    0.20950   0.16090   0.14730   Biso      1.000     H          0.166813  
         H42       1.0000    0.41470   0.06700   0.12730   Biso      1.000     H          0.136776  
         H43       1.0000    0.49960   0.42290   0.33740   Biso      1.000     H          0.132834  
         H44       1.0000    0.29700   0.39810   0.13650   Biso      1.000     H          0.116816  
         H45       1.0000    0.35280   0.54050   0.09650   Biso      1.000     H          0.140789  
         H46       1.0000    0.48280   0.62230   0.17370   Biso      1.000     H          0.133056  
         H47       1.0000    0.90400   0.74880   0.20590   Biso      1.000     H          0.44394   
         H48       1.0000    0.58990   0.64310   0.30550   Biso      1.000     H          0.138614  
         H49       1.0000    0.79050   0.66090   0.35270   Biso      1.000     H          0.166813  
         H50       1.0000    0.88740   0.59140   0.32490   Biso      1.000     H          0.17477   
         H51       1.0000    0.69270   0.53540   0.17300   Biso      1.000     H          0.164906  
         H52       1.0000    0.82780   0.53630   0.19490   Biso      1.000     H          0.185031  
         H53       1.0000    0.36290   0.34790   0.25770   Biso      1.000     H          0.307608  
         H54       1.0000    0.72740   0.49300   0.30420   Biso      1.000     H          0.252077  
         H55       1.0000    0.58530   0.56700   0.37270   Biso      1.000     H          0.136776  
         H56       1.0000    0.14720   0.45950   0.59650   Biso      1.000     H          0.14079   
         Lu1       1.0000    0.27297   0.74730   0.43189   Biso      1.000     Lu          1.666029  
         Lu2       1.0000    0.72703   0.24730   0.06811   Biso      1.000     Lu          1.666029  
         Lu3       1.0000    0.24309   0.80465   0.05502   Biso      1.000     Lu          1.646277  
         Lu4       1.0000    0.22703   0.25270   0.93189   Biso      1.000     Lu          1.66603   
         Lu5       1.0000    0.74309   0.69535   0.94498   Biso      1.000     Lu          1.646276  
         Lu6       1.0000    0.77297   0.75270   0.56811   Biso      1.000     Lu          1.666029  
         Lu7       1.0000    0.75691   0.30465   0.44498   Biso      1.000     Lu          1.646275  
         Lu8       1.0000    0.25691   0.19535   0.55502   Biso      1.000     Lu          1.646276  
         N1        1.0000    0.11240   0.60070   0.74030   Biso      1.000     N          -0.129368           
         N2        1.0000    0.77830   0.44680   0.79430   Biso      1.000     N          0.099954  
         N3        1.0000    0.61240   0.89930   0.25970   Biso      1.000     N          -0.129369           
         N4        1.0000    0.27830   0.05320   0.20570   Biso      1.000     N          0.099954  
         N5        1.0000    0.22170   0.94680   0.70570   Biso      1.000     N          0.099954  
         N6        1.0000    0.88760   0.10070   0.75970   Biso      1.000     N          -0.129365           
         N7        1.0000    0.72170   0.55320   0.29430   Biso      1.000     N          0.099955  
         N8        1.0000    0.38760   0.39930   0.24030   Biso      1.000     N          -0.129369           
         O1        1.0000    0.42610   0.23800   0.89850   Biso      1.000     O          -0.538695           
         O2        1.0000    0.34760   0.27920   0.04870   Biso      1.000     O          -0.527722           
         O3        1.0000    0.52900   0.26490   0.10000   Biso      1.000     O          -0.559639           
         O4        1.0000    0.61130   0.23130   0.94880   Biso      1.000     O          -0.546333           
         O5        1.0000    0.72460   0.34990   0.17710   Biso      1.000     O          -0.516595           
         O6        1.0000    0.73550   0.36950   0.31460   Biso      1.000     O          -0.545069           
         O7        1.0000    0.76630   0.19790   0.33510   Biso      1.000     O          -0.50365  
         O8        1.0000    0.74790   0.17430   0.19820   Biso      1.000     O          -0.593693           
         O9        1.0000    0.11130   0.26870   0.05120   Biso      1.000     O          -0.546334           
         O10       1.0000    0.45760   0.15210   0.55050   Biso      1.000     O          -0.58982  
         O11       1.0000    0.74070   0.38440   0.01370   Biso      1.000     O          -0.774271           
         O12       1.0000    0.74580   0.54060   0.95190   Biso      1.000     O          -0.76807  
         O13       1.0000    0.60400   0.29350   0.67390   Biso      1.000     O          -0.673    
         O14       1.0000    0.76340   0.32780   0.57860   Biso      1.000     O          -0.781075           
         O15       1.0000    0.82080   0.26100   0.71580   Biso      1.000     O          -0.784576           
         O16       1.0000    0.87920   0.18320   0.48820   Biso      1.000     O          -0.515639           
         O17       1.0000    0.05700   0.15220   0.54470   Biso      1.000     O          -0.567983           
         O18       1.0000    0.55420   0.45880   0.97440   Biso      1.000     O          -0.69887  
         O19       1.0000    0.63270   0.18460   0.49280   Biso      1.000     O          -0.52603  
         O20       1.0000    0.94580   0.54120   0.47440   Biso      1.000     O          -0.698869           
         O21       1.0000    0.37920   0.31680   0.51180   Biso      1.000     O          -0.515639           
         O22       1.0000    0.86730   0.81540   0.99280   Biso      1.000     O          -0.52603  
         O23       1.0000    0.04240   0.84790   0.05050   Biso      1.000     O          -0.589821           
         O24       1.0000    0.75210   0.82570   0.69820   Biso      1.000     O          -0.593693           
         O25       1.0000    0.73370   0.80210   0.83510   Biso      1.000     O          -0.50365  
         O26       1.0000    0.76450   0.63050   0.81460   Biso      1.000     O          -0.545069           
         O27       1.0000    0.77540   0.65010   0.67710   Biso      1.000     O          -0.516595           
         O28       1.0000    0.97100   0.73510   0.60000   Biso      1.000     O          -0.559639           
         O29       1.0000    0.55700   0.34780   0.45530   Biso      1.000     O          -0.567983           
         O30       1.0000    0.15240   0.72080   0.54870   Biso      1.000     O          -0.527722           
         O31       1.0000    0.88870   0.76870   0.44880   Biso      1.000     O          -0.546334           
         O32       1.0000    0.13270   0.31540   0.50720   Biso      1.000     O          -0.52603  
         O33       1.0000    0.75930   0.61560   0.51370   Biso      1.000     O          -0.774271           
         O34       1.0000    0.75420   0.45940   0.45190   Biso      1.000     O          -0.768071           
         O35       1.0000    0.89600   0.70650   0.17390   Biso      1.000     O          -0.673    
         O36       1.0000    0.73660   0.67220   0.07860   Biso      1.000     O          -0.781075           
         O37       1.0000    0.67920   0.73900   0.21580   Biso      1.000     O          -0.784576           
         O38       1.0000    0.07390   0.76200   0.39850   Biso      1.000     O          -0.538695           
         O39       1.0000    0.95760   0.34790   0.44950   Biso      1.000     O          -0.58982  
         O40       1.0000    0.12080   0.68320   0.01180   Biso      1.000     O          -0.515639           
         O41       1.0000    0.26630   0.30210   0.66490   Biso      1.000     O          -0.503651           
         O42       1.0000    0.17920   0.76100   0.78420   Biso      1.000     O          -0.784576           
         O43       1.0000    0.23660   0.82780   0.92140   Biso      1.000     O          -0.781074           
         O44       1.0000    0.39600   0.79350   0.82610   Biso      1.000     O          -0.673    
         O45       1.0000    0.25420   0.04060   0.54810   Biso      1.000     O          -0.768071           
         O46       1.0000    0.25930   0.88440   0.48630   Biso      1.000     O          -0.774272           
         O47       1.0000    0.44580   0.95880   0.52560   Biso      1.000     O          -0.69887  
         O48       1.0000    0.38870   0.73130   0.55120   Biso      1.000     O          -0.546334           
         O49       1.0000    0.57390   0.73800   0.60150   Biso      1.000     O          -0.538695           
         O50       1.0000    0.65240   0.77920   0.45130   Biso      1.000     O          -0.527722           
         O51       1.0000    0.47100   0.76490   0.40000   Biso      1.000     O          -0.559638           
         O52       1.0000    0.27540   0.84990   0.32290   Biso      1.000     O          -0.516596           
         O53       1.0000    0.24790   0.32570   0.80180   Biso      1.000     O          -0.593693           
         O54       1.0000    0.23370   0.69790   0.16490   Biso      1.000     O          -0.503651           
         O55       1.0000    0.25210   0.67430   0.30180   Biso      1.000     O          -0.593693           
         O56       1.0000    0.54240   0.65210   0.94950   Biso      1.000     O          -0.58982  
         O57       1.0000    0.26450   0.86950   0.18540   Biso      1.000     O          -0.54507  
         O58       1.0000    0.44300   0.84780   0.04470   Biso      1.000     O          -0.567984           
         O59       1.0000    0.23550   0.13050   0.68540   Biso      1.000     O          -0.545068           
         O60       1.0000    0.22460   0.15010   0.82290   Biso      1.000     O          -0.516595           
         O61       1.0000    0.36730   0.68460   0.00720   Biso      1.000     O          -0.52603  
         O62       1.0000    0.84760   0.22080   0.95130   Biso      1.000     O          -0.527721           
         O63       1.0000    0.92610   0.26200   0.10150   Biso      1.000     O          -0.538695           
         O64       1.0000    0.94300   0.65220   0.95530   Biso      1.000     O          -0.567984           
         O65       1.0000    0.02900   0.23510   0.90000   Biso      1.000     O          -0.559639           
         O66       1.0000    0.24070   0.11560   0.98630   Biso      1.000     O          -0.774271           
         O67       1.0000    0.24580   0.95940   0.04810   Biso      1.000     O          -0.768071           
         O68       1.0000    0.10400   0.20650   0.32610   Biso      1.000     O          -0.673001           
         O69       1.0000    0.26340   0.17220   0.42140   Biso      1.000     O          -0.781074           
         O70       1.0000    0.32080   0.23900   0.28420   Biso      1.000     O          -0.784576           
         O71       1.0000    0.62080   0.81680   0.98820   Biso      1.000     O          -0.515639           
         O72       1.0000    0.05420   0.04120   0.02560   Biso      1.000     O          -0.698869           
         P1        1.0000    0.26140   0.81850   0.83319   Biso      1.000     P          1.368193  
         P2        1.0000    0.31220   0.95050   0.54520   Biso      1.000     P          1.379533  
         P3        1.0000    0.23860   0.18150   0.33319   Biso      1.000     P          1.368195  
         P4        1.0000    0.18780   0.04950   0.04520   Biso      1.000     P          1.379532  
         P5        1.0000    0.73860   0.31850   0.66681   Biso      1.000     P          1.368194  
         P6        1.0000    0.68780   0.45050   0.95480   Biso      1.000     P          1.379532  
         P7        1.0000    0.76140   0.68150   0.16681   Biso      1.000     P          1.368194  
         P8        1.0000    0.81220   0.54950   0.45480   Biso      1.000     P          1.379532 