
##########################################################################
#               Crystallographic Information Format file
#               Produced by PyCifRW module
#
#  This is a CIF file.  CIF has been adopted by the International
#  Union of Crystallography as the standard for data archiving and
#  transmission.
#
#  For information on this file format, follow the CIF links at
#  http://www.iucr.org
##########################################################################

data_image0

_cell_length_a                          11.3656
_cell_length_b                          14.8449
_cell_length_c                          16.3071
_cell_angle_alpha                       90
_cell_angle_beta                        90
_cell_angle_gamma                       90
_symmetry_space_group_name_H-M          'P 1'
_symmetry_int_tables_number             1
loop_
  _symmetry_equiv_pos_as_xyz
         'x, y, z' 
loop_
  _atom_site_label
  _atom_site_occupancy
  _atom_site_fract_x
  _atom_site_fract_y
  _atom_site_fract_z
  _atom_site_thermal_displace_type
  _atom_site_B_iso_or_equiv
  _atom_site_type_symbol
  _atom_site_charge
         C1        1.0000    0.98610   0.47120   0.76570   Biso      1.000     C          0.065357  
         C2        1.0000    0.25480   0.27740   0.73760   Biso      1.000     C          0.512962  
         C3        1.0000    0.23780   0.17730   0.75120   Biso      1.000     C          0.50275   
         C4        1.0000    0.95040   0.23710   0.95610   Biso      1.000     C          0.531208  
         C5        1.0000    0.99810   0.25990   0.04250   Biso      1.000     C          0.488868  
         C6        1.0000    0.52560   0.94500   0.20930   Biso      1.000     C          0.069863  
         C7        1.0000    0.64070   0.93520   0.32800   Biso      1.000     C          0.133617  
         C8        1.0000    0.60950   0.01570   0.35180   Biso      1.000     C          -0.082815           
         C9        1.0000    0.52870   0.06340   0.30500   Biso      1.000     C          -0.036412           
         C10       1.0000    0.48610   0.02880   0.23430   Biso      1.000     C          0.065377  
         C11       1.0000    0.39640   0.07760   0.18210   Biso      1.000     C          -0.153023           
         C12       1.0000    0.18690   0.09960   0.15130   Biso      1.000     C          -0.425913           
         C13       1.0000    0.03930   0.29930   0.48570   Biso      1.000     C          0.523404  
         C14       1.0000    0.24690   0.06820   0.29360   Biso      1.000     C          -0.427672           
         C15       1.0000    0.46070   0.70070   0.98570   Biso      1.000     C          0.523404  
         C16       1.0000    0.24520   0.72260   0.23760   Biso      1.000     C          0.512962  
         C17       1.0000    0.26220   0.82270   0.25120   Biso      1.000     C          0.50275   
         C18       1.0000    0.54960   0.76290   0.45610   Biso      1.000     C          0.531208  
         C19       1.0000    0.50190   0.74010   0.54250   Biso      1.000     C          0.488867  
         C20       1.0000    0.97440   0.05500   0.70930   Biso      1.000     C          0.069863  
         C21       1.0000    0.85930   0.06480   0.82800   Biso      1.000     C          0.133616  
         C22       1.0000    0.89050   0.98430   0.85180   Biso      1.000     C          -0.082815           
         C23       1.0000    0.97130   0.93660   0.80500   Biso      1.000     C          -0.036412           
         C24       1.0000    0.01390   0.97120   0.73430   Biso      1.000     C          0.065377  
         C25       1.0000    0.10360   0.92240   0.68210   Biso      1.000     C          -0.153024           
         C26       1.0000    0.50620   0.79620   0.00660   Biso      1.000     C          0.488386  
         C27       1.0000    0.99380   0.20380   0.50660   Biso      1.000     C          0.488386  
         C28       1.0000    0.74690   0.43180   0.70640   Biso      1.000     C          -0.427672           
         C29       1.0000    0.68690   0.40040   0.84870   Biso      1.000     C          -0.425912           
         C30       1.0000    0.00620   0.70380   0.99340   Biso      1.000     C          0.488387  
         C31       1.0000    0.96070   0.79930   0.01430   Biso      1.000     C          0.523404  
         C32       1.0000    0.74520   0.77740   0.76240   Biso      1.000     C          0.512962  
         C33       1.0000    0.76220   0.67730   0.74880   Biso      1.000     C          0.50275   
         C34       1.0000    0.04960   0.73710   0.54390   Biso      1.000     C          0.531208  
         C35       1.0000    0.00190   0.75990   0.45750   Biso      1.000     C          0.488868  
         C36       1.0000    0.47440   0.44500   0.29070   Biso      1.000     C          0.069863  
         C37       1.0000    0.35930   0.43520   0.17200   Biso      1.000     C          0.133617  
         C38       1.0000    0.39050   0.51570   0.14820   Biso      1.000     C          -0.082815           
         C39       1.0000    0.47130   0.56340   0.19500   Biso      1.000     C          -0.036412           
         C40       1.0000    0.51390   0.52880   0.26570   Biso      1.000     C          0.065377  
         C41       1.0000    0.60360   0.57760   0.31790   Biso      1.000     C          -0.153024           
         C42       1.0000    0.81310   0.59960   0.34870   Biso      1.000     C          -0.425912           
         C43       1.0000    0.75310   0.56820   0.20640   Biso      1.000     C          -0.427672           
         C44       1.0000    0.49380   0.29620   0.49340   Biso      1.000     C          0.488387  
         C45       1.0000    0.53930   0.20070   0.51430   Biso      1.000     C          0.523404  
         C46       1.0000    0.75480   0.22260   0.26240   Biso      1.000     C          0.512962  
         C47       1.0000    0.73780   0.32270   0.24880   Biso      1.000     C          0.50275   
         C48       1.0000    0.45040   0.26290   0.04390   Biso      1.000     C          0.531208  
         C49       1.0000    0.49810   0.24010   0.95750   Biso      1.000     C          0.488867  
         C50       1.0000    0.02560   0.55500   0.79070   Biso      1.000     C          0.069868  
         C51       1.0000    0.14070   0.56480   0.67200   Biso      1.000     C          0.133617  
         C52       1.0000    0.10950   0.48430   0.64820   Biso      1.000     C          -0.082817           
         C53       1.0000    0.02870   0.43660   0.69500   Biso      1.000     C          -0.036393           
         C54       1.0000    0.89640   0.42240   0.81790   Biso      1.000     C          -0.153022           
         C55       1.0000    0.31310   0.90040   0.65130   Biso      1.000     C          -0.425913           
         C56       1.0000    0.25310   0.93180   0.79360   Biso      1.000     C          -0.427672           
         Er1       1.0000    0.27645   0.74518   0.43133   Biso      1.000     Er          2.029684  
         Er2       1.0000    0.22355   0.25482   0.93133   Biso      1.000     Er          2.029684  
         Er3       1.0000    0.72355   0.24518   0.06867   Biso      1.000     Er          2.029683  
         Er4       1.0000    0.76594   0.30492   0.44510   Biso      1.000     Er          2.069577  
         Er5       1.0000    0.77645   0.75482   0.56867   Biso      1.000     Er          2.029682  
         Er6       1.0000    0.73406   0.69508   0.94510   Biso      1.000     Er          2.069577  
         Er7       1.0000    0.23406   0.80492   0.05490   Biso      1.000     Er          2.069577  
         Er8       1.0000    0.26594   0.19508   0.55490   Biso      1.000     Er          2.069577  
         H1        1.0000    0.00060   0.08010   0.66030   Biso      1.000     H          0.132992  
         H2        1.0000    0.10190   0.25220   0.29720   Biso      1.000     H          0.445676  
         H3        1.0000    0.02510   0.99010   0.03260   Biso      1.000     H          0.443516  
         H4        1.0000    0.26810   0.99400   0.19480   Biso      1.000     H          0.257344  
         H5        1.0000    0.30420   0.03510   0.32560   Biso      1.000     H          0.170002  
         H6        1.0000    0.17070   0.04100   0.30390   Biso      1.000     H          0.18492   
         H7        1.0000    0.80960   0.09850   0.86140   Biso      1.000     H          0.113486  
         H8        1.0000    0.20610   0.16310   0.14750   Biso      1.000     H          0.170952  
         H9        1.0000    0.63010   0.84790   0.24310   Biso      1.000     H          0.308242  
         H10       1.0000    0.85920   0.95930   0.89930   Biso      1.000     H          0.147329  
         H11       1.0000    0.09060   0.93730   0.62490   Biso      1.000     H          0.139674  
         H12       1.0000    0.09290   0.85790   0.68840   Biso      1.000     H          0.139834  
         H13       1.0000    0.40940   0.06270   0.12490   Biso      1.000     H          0.139674  
         H14       1.0000    0.29390   0.83690   0.64750   Biso      1.000     H          0.170953  
         H15       1.0000    0.38990   0.90550   0.67680   Biso      1.000     H          0.176835  
         H16       1.0000    0.19580   0.96490   0.82560   Biso      1.000     H          0.170002  
         H17       1.0000    0.32930   0.95900   0.80390   Biso      1.000     H          0.18492   
         H18       1.0000    0.86990   0.15210   0.74310   Biso      1.000     H          0.308242  
         H19       1.0000    0.23190   0.00600   0.69480   Biso      1.000     H          0.257344  
         H20       1.0000    0.47490   0.00990   0.53260   Biso      1.000     H          0.443516  
         H21       1.0000    0.39810   0.74780   0.79720   Biso      1.000     H          0.445676  
         H22       1.0000    0.19040   0.59850   0.63860   Biso      1.000     H          0.113486  
         H23       1.0000    0.99650   0.88020   0.82250   Biso      1.000     H          0.131084  
         H24       1.0000    0.40710   0.14210   0.18840   Biso      1.000     H          0.139833  
         H25       1.0000    0.99940   0.58010   0.83970   Biso      1.000     H          0.132991  
         H26       1.0000    0.64080   0.04070   0.39930   Biso      1.000     H          0.147328  
         H27       1.0000    0.89810   0.75220   0.20280   Biso      1.000     H          0.445675  
         H28       1.0000    0.97490   0.49010   0.46740   Biso      1.000     H          0.443516  
         H29       1.0000    0.73190   0.49400   0.30520   Biso      1.000     H          0.257344  
         H30       1.0000    0.36990   0.34790   0.25690   Biso      1.000     H          0.308242  
         H31       1.0000    0.82930   0.54100   0.19610   Biso      1.000     H          0.18492   
         H32       1.0000    0.69580   0.53510   0.17440   Biso      1.000     H          0.170002  
         H33       1.0000    0.88990   0.59450   0.32320   Biso      1.000     H          0.176835  
         H34       1.0000    0.79390   0.66310   0.35250   Biso      1.000     H          0.170952  
         H35       1.0000    0.59060   0.56270   0.37510   Biso      1.000     H          0.139674  
         H36       1.0000    0.59290   0.64210   0.31160   Biso      1.000     H          0.139834  
         H37       1.0000    0.49650   0.61980   0.17750   Biso      1.000     H          0.131084  
         H38       1.0000    0.50350   0.11980   0.32250   Biso      1.000     H          0.131084  
         H39       1.0000    0.30960   0.40150   0.13860   Biso      1.000     H          0.113486  
         H40       1.0000    0.50060   0.41990   0.33970   Biso      1.000     H          0.132992  
         H41       1.0000    0.35920   0.54070   0.10070   Biso      1.000     H          0.147329  
         H42       1.0000    0.13010   0.65210   0.75690   Biso      1.000     H          0.308242  
         H43       1.0000    0.69040   0.90150   0.36140   Biso      1.000     H          0.113486  
         H44       1.0000    0.49940   0.91990   0.16030   Biso      1.000     H          0.132992  
         H45       1.0000    0.60190   0.24780   0.70280   Biso      1.000     H          0.445676  
         H46       1.0000    0.52510   0.50990   0.96740   Biso      1.000     H          0.443516  
         H47       1.0000    0.76810   0.50600   0.80520   Biso      1.000     H          0.257344  
         H48       1.0000    0.14080   0.45930   0.60070   Biso      1.000     H          0.147329  
         H49       1.0000    0.11010   0.09450   0.17680   Biso      1.000     H          0.176835  
         H50       1.0000    0.80420   0.46490   0.67440   Biso      1.000     H          0.170001  
         H51       1.0000    0.61010   0.40550   0.82320   Biso      1.000     H          0.176835  
         H52       1.0000    0.70610   0.33690   0.85250   Biso      1.000     H          0.170952  
         H53       1.0000    0.90940   0.43730   0.87510   Biso      1.000     H          0.139674  
         H54       1.0000    0.90710   0.35790   0.81160   Biso      1.000     H          0.139833  
         H55       1.0000    0.00350   0.38020   0.67750   Biso      1.000     H          0.131083  
         H56       1.0000    0.67070   0.45900   0.69610   Biso      1.000     H          0.184919  
         N1        1.0000    0.72430   0.55410   0.29560   Biso      1.000     N          0.098616  
         N2        1.0000    0.10430   0.60020   0.74190   Biso      1.000     N          -0.121509           
         N3        1.0000    0.60430   0.89980   0.25810   Biso      1.000     N          -0.121508           
         N4        1.0000    0.27570   0.05410   0.20440   Biso      1.000     N          0.098615  
         N5        1.0000    0.89570   0.10020   0.75810   Biso      1.000     N          -0.121508           
         N6        1.0000    0.22430   0.94590   0.70440   Biso      1.000     N          0.098616  
         N7        1.0000    0.39570   0.39980   0.24190   Biso      1.000     N          -0.121508           
         N8        1.0000    0.77570   0.44590   0.79560   Biso      1.000     N          0.098616  
         O1        1.0000    0.24950   0.32670   0.80120   Biso      1.000     O          -0.653656           
         O2        1.0000    0.74950   0.17330   0.19880   Biso      1.000     O          -0.653656           
         O3        1.0000    0.77300   0.19630   0.33460   Biso      1.000     O          -0.578868           
         O4        1.0000    0.73820   0.36940   0.31380   Biso      1.000     O          -0.623614           
         O5        1.0000    0.72100   0.35090   0.17750   Biso      1.000     O          -0.562907           
         O6        1.0000    0.52540   0.26340   0.09940   Biso      1.000     O          -0.636032           
         O7        1.0000    0.34510   0.27710   0.04810   Biso      1.000     O          -0.594626           
         O8        1.0000    0.42240   0.23530   0.89970   Biso      1.000     O          -0.608261           
         O9        1.0000    0.46920   0.15040   0.54870   Biso      1.000     O          -0.648375           
         O10       1.0000    0.60630   0.22630   0.95000   Biso      1.000     O          -0.605413           
         O11       1.0000    0.73110   0.38410   0.01310   Biso      1.000     O          -0.83737  
         O12       1.0000    0.73660   0.53930   0.95020   Biso      1.000     O          -0.837392           
         O13       1.0000    0.60990   0.29000   0.67090   Biso      1.000     O          -0.673742           
         O14       1.0000    0.77050   0.32930   0.57950   Biso      1.000     O          -0.867955           
         O15       1.0000    0.82170   0.26180   0.71690   Biso      1.000     O          -0.788191           
         O16       1.0000    0.89020   0.18410   0.48680   Biso      1.000     O          -0.581201           
         O17       1.0000    0.06460   0.15190   0.54410   Biso      1.000     O          -0.6285   
         O18       1.0000    0.54470   0.45690   0.97060   Biso      1.000     O          -0.70277  
         O19       1.0000    0.14110   0.31660   0.50680   Biso      1.000     O          -0.605522           
         O20       1.0000    0.64110   0.18340   0.49320   Biso      1.000     O          -0.605521           
         O21       1.0000    0.39020   0.31590   0.51320   Biso      1.000     O          -0.581202           
         O22       1.0000    0.85890   0.81660   0.99320   Biso      1.000     O          -0.605521           
         O23       1.0000    0.03080   0.84960   0.04870   Biso      1.000     O          -0.648375           
         O24       1.0000    0.75050   0.82670   0.69880   Biso      1.000     O          -0.653656           
         O25       1.0000    0.72700   0.80370   0.83460   Biso      1.000     O          -0.578868           
         O26       1.0000    0.76180   0.63060   0.81380   Biso      1.000     O          -0.623615           
         O27       1.0000    0.77900   0.64910   0.67750   Biso      1.000     O          -0.562908           
         O28       1.0000    0.97460   0.73660   0.59940   Biso      1.000     O          -0.636032           
         O29       1.0000    0.56460   0.34810   0.45590   Biso      1.000     O          -0.6285   
         O30       1.0000    0.15490   0.72290   0.54810   Biso      1.000     O          -0.594626           
         O31       1.0000    0.89370   0.77370   0.45000   Biso      1.000     O          -0.605414           
         O32       1.0000    0.95530   0.54310   0.47060   Biso      1.000     O          -0.70277  
         O33       1.0000    0.76890   0.61590   0.51310   Biso      1.000     O          -0.83737  
         O34       1.0000    0.76340   0.46070   0.45020   Biso      1.000     O          -0.837393           
         O35       1.0000    0.89010   0.71000   0.17090   Biso      1.000     O          -0.673742           
         O36       1.0000    0.72950   0.67070   0.07950   Biso      1.000     O          -0.867955           
         O37       1.0000    0.67830   0.73820   0.21690   Biso      1.000     O          -0.788192           
         O38       1.0000    0.07760   0.76470   0.39970   Biso      1.000     O          -0.608261           
         O39       1.0000    0.96920   0.34960   0.45130   Biso      1.000     O          -0.648375           
         O40       1.0000    0.10980   0.68410   0.01320   Biso      1.000     O          -0.581202           
         O41       1.0000    0.27300   0.30370   0.66540   Biso      1.000     O          -0.578868           
         O42       1.0000    0.93540   0.65190   0.95590   Biso      1.000     O          -0.628501           
         O43       1.0000    0.17830   0.76180   0.78310   Biso      1.000     O          -0.788192           
         O44       1.0000    0.22950   0.82930   0.92050   Biso      1.000     O          -0.867955           
         O45       1.0000    0.39010   0.79000   0.82910   Biso      1.000     O          -0.673742           
         O46       1.0000    0.26340   0.03930   0.54980   Biso      1.000     O          -0.837393           
         O47       1.0000    0.26890   0.88410   0.48690   Biso      1.000     O          -0.83737  
         O48       1.0000    0.45530   0.95690   0.52940   Biso      1.000     O          -0.70277  
         O49       1.0000    0.39370   0.72630   0.55000   Biso      1.000     O          -0.605414           
         O50       1.0000    0.57760   0.73530   0.60030   Biso      1.000     O          -0.60826  
         O51       1.0000    0.65490   0.77710   0.45190   Biso      1.000     O          -0.594626           
         O52       1.0000    0.47460   0.76340   0.40060   Biso      1.000     O          -0.636032           
         O53       1.0000    0.27900   0.85090   0.32250   Biso      1.000     O          -0.562907           
         O54       1.0000    0.22700   0.69630   0.16540   Biso      1.000     O          -0.578868           
         O55       1.0000    0.25050   0.67330   0.30120   Biso      1.000     O          -0.653656           
         O56       1.0000    0.53080   0.65040   0.95130   Biso      1.000     O          -0.648375           
         O57       1.0000    0.26180   0.86940   0.18620   Biso      1.000     O          -0.623614           
         O58       1.0000    0.43540   0.84810   0.04410   Biso      1.000     O          -0.628501           
         O59       1.0000    0.23820   0.13060   0.68620   Biso      1.000     O          -0.623615           
         O60       1.0000    0.22100   0.14910   0.82250   Biso      1.000     O          -0.562907           
         O61       1.0000    0.02540   0.23660   0.90060   Biso      1.000     O          -0.636032           
         O62       1.0000    0.35890   0.68340   0.00680   Biso      1.000     O          -0.605522           
         O63       1.0000    0.92240   0.26470   0.10030   Biso      1.000     O          -0.608261           
         O64       1.0000    0.10630   0.27370   0.05000   Biso      1.000     O          -0.605414           
         O65       1.0000    0.04470   0.04310   0.02940   Biso      1.000     O          -0.70277  
         O66       1.0000    0.84510   0.22290   0.95190   Biso      1.000     O          -0.594626           
         O67       1.0000    0.23660   0.96070   0.04980   Biso      1.000     O          -0.837392           
         O68       1.0000    0.10990   0.21000   0.32910   Biso      1.000     O          -0.673742           
         O69       1.0000    0.27050   0.17070   0.42050   Biso      1.000     O          -0.867955           
         O70       1.0000    0.32170   0.23820   0.28310   Biso      1.000     O          -0.788191           
         O71       1.0000    0.60980   0.81590   0.98680   Biso      1.000     O          -0.581202           
         O72       1.0000    0.23110   0.11590   0.98690   Biso      1.000     O          -0.837371           
         P1        1.0000    0.25770   0.81790   0.83281   Biso      1.000     P          1.397332  
         P2        1.0000    0.82050   0.55170   0.45328   Biso      1.000     P          1.408214  
         P3        1.0000    0.75770   0.68210   0.16719   Biso      1.000     P          1.397332  
         P4        1.0000    0.67950   0.44830   0.95328   Biso      1.000     P          1.408213  
         P5        1.0000    0.74230   0.31790   0.66719   Biso      1.000     P          1.397331  
         P6        1.0000    0.17950   0.05170   0.04672   Biso      1.000     P          1.408214  
         P7        1.0000    0.24230   0.18210   0.33281   Biso      1.000     P          1.397332  
         P8        1.0000    0.32050   0.94830   0.54672   Biso      1.000     P          1.408214 