
##########################################################################
#               Crystallographic Information Format file
#               Produced by PyCifRW module
#
#  This is a CIF file.  CIF has been adopted by the International
#  Union of Crystallography as the standard for data archiving and
#  transmission.
#
#  For information on this file format, follow the CIF links at
#  http://www.iucr.org
##########################################################################

data_image0

_cell_length_a                          11.6884
_cell_length_b                          5.5643
_cell_length_c                          22.8159
_cell_angle_alpha                       90
_cell_angle_beta                        100.691
_cell_angle_gamma                       90
_symmetry_space_group_name_H-M          'P 1'
_symmetry_int_tables_number             1
loop_
  _symmetry_equiv_pos_as_xyz
         'x, y, z' 
loop_
  _atom_site_label
  _atom_site_occupancy
  _atom_site_fract_x
  _atom_site_fract_y
  _atom_site_fract_z
  _atom_site_thermal_displace_type
  _atom_site_B_iso_or_equiv
  _atom_site_type_symbol
  _atom_site_charge
         C1        1.0000    0.00648   0.24100   0.23711   Biso      1.000     C          0.636273  
         C2        1.0000    0.77381   0.26160   0.34475   Biso      1.000     C          0.624796  
         C3        1.0000    0.88198   0.33300   0.51038   Biso      1.000     C          -0.098702           
         C4        1.0000    0.85323   0.38120   0.44975   Biso      1.000     C          -0.090048           
         C5        1.0000    0.79830   0.20860   0.41040   Biso      1.000     C          -0.017197999999999998         
         C6        1.0000    0.76724   0.98780   0.43163   Biso      1.000     C          -0.089487           
         C7        1.0000    0.79405   0.93800   0.49225   Biso      1.000     C          -0.099475           
         C8        1.0000    0.85330   0.10910   0.53071   Biso      1.000     C          -0.07817  
         C9        1.0000    0.78127   0.10920   0.64189   Biso      1.000     C          -0.08627699999999999          
         C10       1.0000    0.28060   0.17210   0.17116   Biso      1.000     C          -0.091205           
         C11       1.0000    0.10048   0.29180   0.20098   Biso      1.000     C          -0.018366999999999998         
         C12       1.0000    0.10237   0.50980   0.17103   Biso      1.000     C          -0.09264700000000001          
         C13       1.0000    0.19221   0.55910   0.14045   Biso      1.000     C          -0.10430299999999999          
         C14       1.0000    0.28127   0.39080   0.14189   Biso      1.000     C          -0.086276           
         C15       1.0000    0.27381   0.23840   0.84475   Biso      1.000     C          0.624796  
         C16       1.0000    0.38198   0.16700   0.01038   Biso      1.000     C          -0.098702           
         C17       1.0000    0.35323   0.11880   0.94975   Biso      1.000     C          -0.090048           
         C18       1.0000    0.18837   0.12320   0.20028   Biso      1.000     C          -0.09815700000000001          
         C19       1.0000    0.29830   0.29140   0.91040   Biso      1.000     C          -0.017197999999999998         
         C20       1.0000    0.69221   0.94090   0.64045   Biso      1.000     C          -0.10430299999999999          
         C21       1.0000    0.60048   0.20820   0.70098   Biso      1.000     C          -0.018366999999999998         
         C22       1.0000    0.71940   0.82790   0.82884   Biso      1.000     C          -0.091205           
         C23       1.0000    0.81163   0.87680   0.79972   Biso      1.000     C          -0.09815700000000001          
         C24       1.0000    0.89952   0.70820   0.79902   Biso      1.000     C          -0.018366999999999998         
         C25       1.0000    0.89763   0.49020   0.82897   Biso      1.000     C          -0.09264800000000001          
         C26       1.0000    0.80779   0.44090   0.85955   Biso      1.000     C          -0.10430299999999999          
         C27       1.0000    0.71873   0.60920   0.85811   Biso      1.000     C          -0.086276           
         C28       1.0000    0.72619   0.76160   0.15525   Biso      1.000     C          0.624796  
         C29       1.0000    0.60237   0.99020   0.67103   Biso      1.000     C          -0.09264700000000001          
         C30       1.0000    0.61802   0.83300   0.98962   Biso      1.000     C          -0.098702           
         C31       1.0000    0.70170   0.70860   0.08960   Biso      1.000     C          -0.017199000000000002         
         C32       1.0000    0.73276   0.48780   0.06837   Biso      1.000     C          -0.089487           
         C33       1.0000    0.70595   0.43800   0.00775   Biso      1.000     C          -0.099474           
         C34       1.0000    0.64670   0.60910   0.96929   Biso      1.000     C          -0.07817  
         C35       1.0000    0.50648   0.25900   0.73711   Biso      1.000     C          0.636273  
         C36       1.0000    0.78060   0.32790   0.67116   Biso      1.000     C          -0.091205           
         C37       1.0000    0.68837   0.37680   0.70028   Biso      1.000     C          -0.09815700000000001          
         C38       1.0000    0.64677   0.88120   0.05025   Biso      1.000     C          -0.090047           
         C39       1.0000    0.26724   0.51220   0.93163   Biso      1.000     C          -0.089487           
         C40       1.0000    0.99352   0.75900   0.76289   Biso      1.000     C          0.636273  
         C41       1.0000    0.30779   0.05910   0.35955   Biso      1.000     C          -0.10430299999999999          
         C42       1.0000    0.49352   0.74100   0.26289   Biso      1.000     C          0.636273  
         C43       1.0000    0.31163   0.62320   0.29972   Biso      1.000     C          -0.09815700000000001          
         C44       1.0000    0.39952   0.79180   0.29902   Biso      1.000     C          -0.018366999999999998         
         C45       1.0000    0.39763   0.00980   0.32897   Biso      1.000     C          -0.09264700000000001          
         C46       1.0000    0.29405   0.56200   0.99225   Biso      1.000     C          -0.099474           
         C47       1.0000    0.21873   0.89080   0.35811   Biso      1.000     C          -0.08627699999999999          
         C48       1.0000    0.22619   0.73840   0.65525   Biso      1.000     C          0.624796  
         C49       1.0000    0.11802   0.66700   0.48962   Biso      1.000     C          -0.098702           
         C50       1.0000    0.14677   0.61880   0.55025   Biso      1.000     C          -0.090048           
         C51       1.0000    0.20170   0.79140   0.58960   Biso      1.000     C          -0.017197999999999998         
         C52       1.0000    0.23276   0.01220   0.56837   Biso      1.000     C          -0.089487           
         C53       1.0000    0.20595   0.06200   0.50775   Biso      1.000     C          -0.099474           
         C54       1.0000    0.14670   0.89090   0.46929   Biso      1.000     C          -0.07817  
         C55       1.0000    0.35330   0.39090   0.03071   Biso      1.000     C          -0.07817  
         C56       1.0000    0.21940   0.67210   0.32884   Biso      1.000     C          -0.091205           
         Ca1       1.0000    0.36258   0.74367   0.77818   Biso      1.000     Ca          1.4470889999999998  
         Ca2       1.0000    0.13742   0.24367   0.72182   Biso      1.000     Ca          1.4470889999999998  
         Ca3       1.0000    0.86258   0.75633   0.27818   Biso      1.000     Ca          1.4470889999999998  
         Ca4       1.0000    0.63742   0.25633   0.22182   Biso      1.000     Ca          1.4470889999999998  
         H1        1.0000    0.65860   0.94120   0.82870   Biso      1.000     H          0.12475399999999999           
         H2        1.0000    0.07960   0.54990   0.46260   Biso      1.000     H          0.123554  
         H3        1.0000    0.68540   0.52680   0.71990   Biso      1.000     H          0.10731800000000001           
         H4        1.0000    0.12870   0.46630   0.56490   Biso      1.000     H          0.11172699999999999           
         H5        1.0000    0.84140   0.44120   0.67130   Biso      1.000     H          0.12475399999999999           
         H6        1.0000    0.34140   0.05880   0.17130   Biso      1.000     H          0.12475399999999999           
         H7        1.0000    0.37130   0.96630   0.93510   Biso      1.000     H          0.11172699999999999           
         H8        1.0000    0.27220   0.12830   0.59530   Biso      1.000     H          0.128227  
         H9        1.0000    0.72780   0.28890   0.99280   Biso      1.000     H          0.115672  
         H10       1.0000    0.77220   0.37170   0.09530   Biso      1.000     H          0.128227  
         H11       1.0000    0.22780   0.21110   0.49280   Biso      1.000     H          0.115672  
         H12       1.0000    0.62870   0.03370   0.06490   Biso      1.000     H          0.11172699999999999           
         H13       1.0000    0.22780   0.62830   0.90470   Biso      1.000     H          0.128227  
         H14       1.0000    0.57960   0.95010   0.96260   Biso      1.000     H          0.123554  
         H15       1.0000    0.80710   0.29490   0.88110   Biso      1.000     H          0.114949  
         H16       1.0000    0.95760   0.37550   0.82850   Biso      1.000     H          0.124046  
         H17       1.0000    0.81460   0.02680   0.78010   Biso      1.000     H          0.10731800000000001           
         H18       1.0000    0.54240   0.87550   0.67150   Biso      1.000     H          0.124046  
         H19       1.0000    0.69290   0.79490   0.61890   Biso      1.000     H          0.11494800000000001           
         H20       1.0000    0.42040   0.04990   0.03740   Biso      1.000     H          0.123554  
         H21       1.0000    0.31460   0.47320   0.28010   Biso      1.000     H          0.10731800000000001           
         H22       1.0000    0.15860   0.55880   0.32870   Biso      1.000     H          0.12475399999999999           
         H23       1.0000    0.18540   0.97320   0.21990   Biso      1.000     H          0.10731800000000001           
         H24       1.0000    0.19290   0.70510   0.11890   Biso      1.000     H          0.11494800000000001           
         H25       1.0000    0.77220   0.78890   0.50720   Biso      1.000     H          0.115673  
         H26       1.0000    0.72780   0.87170   0.40470   Biso      1.000     H          0.128227  
         H27       1.0000    0.04240   0.62450   0.17150   Biso      1.000     H          0.124046  
         H28       1.0000    0.27220   0.71110   0.00720   Biso      1.000     H          0.115673  
         H29       1.0000    0.87130   0.53370   0.43510   Biso      1.000     H          0.11172699999999999           
         H30       1.0000    0.30710   0.20510   0.38110   Biso      1.000     H          0.114949  
         H31       1.0000    0.92040   0.45010   0.53740   Biso      1.000     H          0.123554  
         H32       1.0000    0.45760   0.12450   0.32850   Biso      1.000     H          0.124046  
         O1        1.0000    0.23970   0.91505   0.69092   Biso      1.000     O          -0.6857340000000001           
         O2        1.0000    0.23621   0.52343   0.67212   Biso      1.000     O          -0.637035           
         O3        1.0000    0.54211   0.91879   0.24461   Biso      1.000     O          -0.639044           
         O4        1.0000    0.76030   0.08495   0.30908   Biso      1.000     O          -0.6857340000000001           
         O5        1.0000    0.51296   0.52383   0.25348   Biso      1.000     O          -0.657406           
         O6        1.0000    0.08446   0.22059   0.38950   Biso      1.000     O          -0.502732           
         O7        1.0000    0.00494   0.80562   0.37030   Biso      1.000     O          -0.564652           
         O8        1.0000    0.76379   0.47657   0.32788   Biso      1.000     O          -0.637035           
         O9        1.0000    0.45789   0.08121   0.75539   Biso      1.000     O          -0.639044           
         O10       1.0000    0.48704   0.47617   0.74652   Biso      1.000     O          -0.657406           
         O11       1.0000    0.49506   0.30562   0.12970   Biso      1.000     O          -0.564652           
         O12       1.0000    0.91554   0.77941   0.61050   Biso      1.000     O          -0.502732           
         O13       1.0000    0.41554   0.72059   0.11050   Biso      1.000     O          -0.502732           
         O14       1.0000    0.26379   0.02343   0.82788   Biso      1.000     O          -0.637035           
         O15       1.0000    0.50494   0.69438   0.87030   Biso      1.000     O          -0.564652           
         O16       1.0000    0.58446   0.27941   0.88950   Biso      1.000     O          -0.502732           
         O17       1.0000    0.01296   0.97617   0.75348   Biso      1.000     O          -0.657406           
         O18       1.0000    0.04211   0.58121   0.74461   Biso      1.000     O          -0.639044           
         O19       1.0000    0.73621   0.97657   0.17212   Biso      1.000     O          -0.637035           
         O20       1.0000    0.73970   0.58495   0.19092   Biso      1.000     O          -0.6857340000000001           
         O21       1.0000    0.98704   0.02383   0.24652   Biso      1.000     O          -0.657406           
         O22       1.0000    0.95789   0.41879   0.25539   Biso      1.000     O          -0.639044           
         O23       1.0000    0.99506   0.19438   0.62970   Biso      1.000     O          -0.564652           
         O24       1.0000    0.26030   0.41505   0.80908   Biso      1.000     O          -0.6857340000000001           
         S1        1.0000    0.39855   0.46454   0.10670   Biso      1.000     S          0.992233  
         S2        1.0000    0.89855   0.03546   0.60670   Biso      1.000     S          0.992233  
         S3        1.0000    0.60145   0.53546   0.89330   Biso      1.000     S          0.992233  
         S4        1.0000    0.10145   0.96454   0.39330   Biso      1.000     S          0.992233 