
##########################################################################
#               Crystallographic Information Format file
#               Produced by PyCifRW module
#
#  This is a CIF file.  CIF has been adopted by the International
#  Union of Crystallography as the standard for data archiving and
#  transmission.
#
#  For information on this file format, follow the CIF links at
#  http://www.iucr.org
##########################################################################

data_image0

_cell_length_a                          11.6426
_cell_length_b                          5.5574
_cell_length_c                          22.8446
_cell_angle_alpha                       90
_cell_angle_beta                        100.681
_cell_angle_gamma                       90
_symmetry_space_group_name_H-M          'P 1'
_symmetry_int_tables_number             1
loop_
  _symmetry_equiv_pos_as_xyz
         'x, y, z' 
loop_
  _atom_site_label
  _atom_site_occupancy
  _atom_site_fract_x
  _atom_site_fract_y
  _atom_site_fract_z
  _atom_site_thermal_displace_type
  _atom_site_B_iso_or_equiv
  _atom_site_type_symbol
  _atom_site_charge
         C1        1.0000    0.70830   0.56200   0.00832   Biso      1.000     C          -0.100213           
         C2        1.0000    0.80916   0.56140   0.85983   Biso      1.000     C          -0.103833           
         C3        1.0000    0.79170   0.06200   0.49168   Biso      1.000     C          -0.100216           
         C4        1.0000    0.76526   0.01090   0.43115   Biso      1.000     C          -0.086561           
         C5        1.0000    0.79730   0.79030   0.41011   Biso      1.000     C          -0.01817  
         C6        1.0000    0.77313   0.73570   0.34464   Biso      1.000     C          0.625948  
         C7        1.0000    0.64805   0.39170   0.96969   Biso      1.000     C          -0.077671           
         C8        1.0000    0.78006   0.67450   0.67088   Biso      1.000     C          -0.091672           
         C9        1.0000    0.22687   0.26430   0.65536   Biso      1.000     C          0.625958  
         C10       1.0000    0.20270   0.20970   0.58989   Biso      1.000     C          -0.018182           
         C11       1.0000    0.23474   0.98910   0.56885   Biso      1.000     C          -0.086565           
         C12       1.0000    0.71994   0.17450   0.82912   Biso      1.000     C          -0.091678           
         C13       1.0000    0.71997   0.39320   0.85853   Biso      1.000     C          -0.086924           
         C14       1.0000    0.20830   0.93800   0.50832   Biso      1.000     C          -0.100213           
         C15       1.0000    0.14805   0.10830   0.46969   Biso      1.000     C          -0.077671           
         C16       1.0000    0.11886   0.33210   0.48971   Biso      1.000     C          -0.09996000000000001          
         C17       1.0000    0.81168   0.12570   0.79964   Biso      1.000     C          -0.09729600000000001          
         C18       1.0000    0.14709   0.38170   0.55027   Biso      1.000     C          -0.090133           
         C19       1.0000    0.99323   0.24330   0.76234   Biso      1.000     C          0.6382909999999999  
         C20       1.0000    0.21997   0.10680   0.35853   Biso      1.000     C          -0.086924           
         C21       1.0000    0.30916   0.93860   0.35983   Biso      1.000     C          -0.103833           
         C22       1.0000    0.89984   0.29480   0.79863   Biso      1.000     C          -0.019203           
         C23       1.0000    0.39865   0.98790   0.32893   Biso      1.000     C          -0.089672           
         C24       1.0000    0.89865   0.51210   0.82893   Biso      1.000     C          -0.089672           
         C25       1.0000    0.39984   0.20520   0.29863   Biso      1.000     C          -0.019203           
         C26       1.0000    0.21994   0.32550   0.32912   Biso      1.000     C          -0.091678           
         C27       1.0000    0.49323   0.25670   0.26234   Biso      1.000     C          0.6382909999999999  
         C28       1.0000    0.28006   0.82550   0.17088   Biso      1.000     C          -0.091672           
         C29       1.0000    0.18832   0.87430   0.20036   Biso      1.000     C          -0.097294           
         C30       1.0000    0.73474   0.51090   0.06885   Biso      1.000     C          -0.086565           
         C31       1.0000    0.68832   0.62570   0.70036   Biso      1.000     C          -0.097294           
         C32       1.0000    0.50677   0.74330   0.73766   Biso      1.000     C          0.638301  
         C33       1.0000    0.60016   0.79480   0.70137   Biso      1.000     C          -0.019211000000000002         
         C34       1.0000    0.70270   0.29030   0.08989   Biso      1.000     C          -0.018181           
         C35       1.0000    0.60135   0.01210   0.67107   Biso      1.000     C          -0.089676           
         C36       1.0000    0.72687   0.23570   0.15536   Biso      1.000     C          0.625958  
         C37       1.0000    0.27313   0.76430   0.84464   Biso      1.000     C          0.625947  
         C38       1.0000    0.29730   0.70970   0.91011   Biso      1.000     C          -0.018171           
         C39       1.0000    0.26526   0.48910   0.93115   Biso      1.000     C          -0.08656  
         C40       1.0000    0.69084   0.06140   0.64017   Biso      1.000     C          -0.10382899999999999          
         C41       1.0000    0.29170   0.43800   0.99168   Biso      1.000     C          -0.100216           
         C42       1.0000    0.85195   0.89170   0.53031   Biso      1.000     C          -0.077682           
         C43       1.0000    0.78003   0.89320   0.64147   Biso      1.000     C          -0.08692000000000001          
         C44       1.0000    0.38114   0.83210   0.01029   Biso      1.000     C          -0.099965           
         C45       1.0000    0.61886   0.16790   0.98971   Biso      1.000     C          -0.09996000000000001          
         C46       1.0000    0.35291   0.88170   0.94973   Biso      1.000     C          -0.090137           
         C47       1.0000    0.85291   0.61830   0.44973   Biso      1.000     C          -0.090137           
         C48       1.0000    0.28003   0.60680   0.14147   Biso      1.000     C          -0.08692000000000001          
         C49       1.0000    0.19084   0.43860   0.14017   Biso      1.000     C          -0.10382999999999999          
         C50       1.0000    0.64709   0.11830   0.05027   Biso      1.000     C          -0.090133           
         C51       1.0000    0.10135   0.48790   0.17107   Biso      1.000     C          -0.089675           
         C52       1.0000    0.88114   0.66790   0.51029   Biso      1.000     C          -0.099965           
         C53       1.0000    0.10016   0.70520   0.20137   Biso      1.000     C          -0.019211000000000002         
         C54       1.0000    0.00677   0.75670   0.23766   Biso      1.000     C          0.638301  
         C55       1.0000    0.35195   0.60830   0.03031   Biso      1.000     C          -0.077682           
         C56       1.0000    0.31168   0.37430   0.29964   Biso      1.000     C          -0.09729600000000001          
         Ca1       1.0000    0.36275   0.25855   0.77874   Biso      1.000     Ca          1.445864  
         Ca2       1.0000    0.63725   0.74145   0.22125   Biso      1.000     Ca          1.445868  
         Ca3       1.0000    0.86275   0.24145   0.27874   Biso      1.000     Ca          1.445864  
         Ca4       1.0000    0.13725   0.75855   0.72125   Biso      1.000     Ca          1.445868  
         H1        1.0000    0.81430   0.97570   0.78000   Biso      1.000     H          0.106923  
         H2        1.0000    0.65890   0.06120   0.82910   Biso      1.000     H          0.12496199999999999           
         H3        1.0000    0.72530   0.12630   0.40410   Biso      1.000     H          0.12618   
         H4        1.0000    0.80880   0.70730   0.88150   Biso      1.000     H          0.114551  
         H5        1.0000    0.76900   0.21100   0.50650   Biso      1.000     H          0.115095  
         H6        1.0000    0.62830   0.96580   0.06470   Biso      1.000     H          0.11171199999999999           
         H7        1.0000    0.91960   0.55120   0.53740   Biso      1.000     H          0.124081  
         H8        1.0000    0.58040   0.05120   0.96260   Biso      1.000     H          0.124083  
         H9        1.0000    0.87170   0.46580   0.43530   Biso      1.000     H          0.111713  
         H10       1.0000    0.69120   0.20730   0.61850   Biso      1.000     H          0.114552  
         H11       1.0000    0.54100   0.12670   0.67150   Biso      1.000     H          0.123056  
         H12       1.0000    0.68570   0.47570   0.72000   Biso      1.000     H          0.106923  
         H13       1.0000    0.95900   0.62670   0.82850   Biso      1.000     H          0.12306199999999999           
         H14       1.0000    0.15890   0.43880   0.32910   Biso      1.000     H          0.12496199999999999           
         H15       1.0000    0.77470   0.62630   0.09590   Biso      1.000     H          0.126177  
         H16       1.0000    0.22530   0.37370   0.90410   Biso      1.000     H          0.12618   
         H17       1.0000    0.26900   0.28900   0.00650   Biso      1.000     H          0.115095  
         H18       1.0000    0.41960   0.94880   0.03740   Biso      1.000     H          0.124081  
         H19       1.0000    0.37170   0.03420   0.93530   Biso      1.000     H          0.111713  
         H20       1.0000    0.19120   0.29270   0.11850   Biso      1.000     H          0.114553  
         H21       1.0000    0.04100   0.37330   0.17150   Biso      1.000     H          0.123056  
         H22       1.0000    0.18570   0.02430   0.22000   Biso      1.000     H          0.106923  
         H23       1.0000    0.34110   0.93880   0.17090   Biso      1.000     H          0.124963  
         H24       1.0000    0.73100   0.71100   0.99350   Biso      1.000     H          0.115097  
         H25       1.0000    0.27470   0.87370   0.59590   Biso      1.000     H          0.126177  
         H26       1.0000    0.23100   0.78900   0.49350   Biso      1.000     H          0.115097  
         H27       1.0000    0.84110   0.56120   0.67090   Biso      1.000     H          0.124963  
         H28       1.0000    0.12830   0.53420   0.56470   Biso      1.000     H          0.11171199999999999           
         H29       1.0000    0.08040   0.44880   0.46260   Biso      1.000     H          0.124083  
         H30       1.0000    0.45900   0.87330   0.32850   Biso      1.000     H          0.12306199999999999           
         H31       1.0000    0.31430   0.52430   0.28000   Biso      1.000     H          0.106923  
         H32       1.0000    0.30880   0.79270   0.38150   Biso      1.000     H          0.114552  
         O1        1.0000    0.74044   0.41227   0.19108   Biso      1.000     O          -0.687214           
         O2        1.0000    0.25956   0.58773   0.80892   Biso      1.000     O          -0.6872060000000001           
         O3        1.0000    0.26333   0.97921   0.82817   Biso      1.000     O          -0.635022           
         O4        1.0000    0.98726   0.97435   0.24690   Biso      1.000     O          -0.657536           
         O5        1.0000    0.95839   0.57891   0.25634   Biso      1.000     O          -0.641175           
         O6        1.0000    0.41423   0.27672   0.10967   Biso      1.000     O          -0.50337  
         O7        1.0000    0.49453   0.69109   0.12907   Biso      1.000     O          -0.56492  
         O8        1.0000    0.50547   0.30891   0.87093   Biso      1.000     O          -0.5648890000000001           
         O9        1.0000    0.58577   0.72328   0.89033   Biso      1.000     O          -0.50337  
         O10       1.0000    0.04161   0.42109   0.74366   Biso      1.000     O          -0.641161           
         O11       1.0000    0.01274   0.02565   0.75310   Biso      1.000     O          -0.6575479999999999           
         O12       1.0000    0.73667   0.02079   0.17183   Biso      1.000     O          -0.6350640000000001           
         O13       1.0000    0.08577   0.77672   0.39033   Biso      1.000     O          -0.50337  
         O14       1.0000    0.91423   0.22328   0.60967   Biso      1.000     O          -0.50337  
         O15       1.0000    0.24044   0.08773   0.69108   Biso      1.000     O          -0.687214           
         O16       1.0000    0.23667   0.47921   0.67183   Biso      1.000     O          -0.6350640000000001           
         O17       1.0000    0.51274   0.47435   0.25310   Biso      1.000     O          -0.6575479999999999           
         O18       1.0000    0.54161   0.07891   0.24366   Biso      1.000     O          -0.641161           
         O19       1.0000    0.99453   0.80891   0.62907   Biso      1.000     O          -0.56492  
         O20       1.0000    0.00547   0.19109   0.37093   Biso      1.000     O          -0.5648890000000001           
         O21       1.0000    0.45839   0.92109   0.75634   Biso      1.000     O          -0.641175           
         O22       1.0000    0.48726   0.52565   0.74690   Biso      1.000     O          -0.657536           
         O23       1.0000    0.76333   0.52079   0.32817   Biso      1.000     O          -0.635022           
         O24       1.0000    0.75956   0.91227   0.30892   Biso      1.000     O          -0.6872060000000001           
         S1        1.0000    0.10261   0.03299   0.39391   Biso      1.000     S          0.9938819999999999  
         S2        1.0000    0.39739   0.53299   0.10609   Biso      1.000     S          0.993898  
         S3        1.0000    0.60261   0.46701   0.89391   Biso      1.000     S          0.9938819999999999  
         S4        1.0000    0.89739   0.96701   0.60609   Biso      1.000     S          0.993898 