
##########################################################################
#               Crystallographic Information Format file
#               Produced by PyCifRW module
#
#  This is a CIF file.  CIF has been adopted by the International
#  Union of Crystallography as the standard for data archiving and
#  transmission.
#
#  For information on this file format, follow the CIF links at
#  http://www.iucr.org
##########################################################################

data_image0

_cell_length_a                          11.8767
_cell_length_b                          5.5769
_cell_length_c                          22.486
_cell_angle_alpha                       90
_cell_angle_beta                        99.893
_cell_angle_gamma                       90
_symmetry_space_group_name_H-M          'P 1'
_symmetry_int_tables_number             1
loop_
  _symmetry_equiv_pos_as_xyz
         'x, y, z' 
loop_
  _atom_site_label
  _atom_site_occupancy
  _atom_site_fract_x
  _atom_site_fract_y
  _atom_site_fract_z
  _atom_site_thermal_displace_type
  _atom_site_B_iso_or_equiv
  _atom_site_type_symbol
  _atom_site_charge
         C1        1.0000    0.96077   0.17010   0.93647   Biso      1.000     C          -0.101879           
         C2        1.0000    0.15070   0.17400   0.80489   Biso      1.000     C          -0.092752           
         C3        1.0000    0.53923   0.67010   0.56353   Biso      1.000     C          -0.101879           
         C4        1.0000    0.64507   0.62250   0.54795   Biso      1.000     C          -0.087672           
         C5        1.0000    0.73040   0.79520   0.55528   Biso      1.000     C          -0.019880000000000002         
         C6        1.0000    0.84236   0.74230   0.53549   Biso      1.000     C          0.6269600000000001  
         C7        1.0000    0.97934   0.39440   0.91353   Biso      1.000     C          -0.074934           
         C8        1.0000    0.43438   0.06450   0.72195   Biso      1.000     C          -0.10403299999999999          
         C9        1.0000    0.15764   0.25770   0.46451   Biso      1.000     C          0.6269600000000001  
         C10       1.0000    0.26960   0.20480   0.44472   Biso      1.000     C          -0.019880000000000002         
         C11       1.0000    0.35493   0.37750   0.45205   Biso      1.000     C          -0.087672           
         C12       1.0000    0.06562   0.56450   0.77805   Biso      1.000     C          -0.10403299999999999          
         C13       1.0000    0.11032   0.39420   0.82090   Biso      1.000     C          -0.082993           
         C14       1.0000    0.46077   0.32990   0.43647   Biso      1.000     C          -0.10188  
         C15       1.0000    0.47934   0.10560   0.41353   Biso      1.000     C          -0.074934           
         C16       1.0000    0.39377   0.93320   0.40371   Biso      1.000     C          -0.10406800000000001          
         C17       1.0000    0.06331   0.51450   0.71733   Biso      1.000     C          -0.08884  
         C18       1.0000    0.28850   0.98320   0.41971   Biso      1.000     C          -0.085151           
         C19       1.0000    0.10547   0.24360   0.63419   Biso      1.000     C          0.637446  
         C20       1.0000    0.61032   0.10580   0.32090   Biso      1.000     C          -0.082992           
         C21       1.0000    0.65070   0.32600   0.30489   Biso      1.000     C          -0.092753           
         C22       1.0000    0.10355   0.29500   0.70020   Biso      1.000     C          -0.020159           
         C23       1.0000    0.64605   0.37420   0.24368   Biso      1.000     C          -0.097174           
         C24       1.0000    0.14605   0.12580   0.74368   Biso      1.000     C          -0.097175           
         C25       1.0000    0.60355   0.20500   0.20020   Biso      1.000     C          -0.020159           
         C26       1.0000    0.56562   0.93550   0.27805   Biso      1.000     C          -0.104031           
         C27       1.0000    0.60547   0.25640   0.13419   Biso      1.000     C          0.637446  
         C28       1.0000    0.93438   0.43550   0.22195   Biso      1.000     C          -0.10403299999999999          
         C29       1.0000    0.93669   0.48550   0.28267   Biso      1.000     C          -0.08884  
         C30       1.0000    0.85493   0.12250   0.95205   Biso      1.000     C          -0.087672           
         C31       1.0000    0.43669   0.01450   0.78267   Biso      1.000     C          -0.08884  
         C32       1.0000    0.39453   0.74360   0.86581   Biso      1.000     C          0.637446  
         C33       1.0000    0.39645   0.79500   0.79980   Biso      1.000     C          -0.020159           
         C34       1.0000    0.76960   0.29520   0.94472   Biso      1.000     C          -0.019880000000000002         
         C35       1.0000    0.35395   0.62580   0.75632   Biso      1.000     C          -0.097175           
         C36       1.0000    0.65764   0.24230   0.96451   Biso      1.000     C          0.6269600000000001  
         C37       1.0000    0.34236   0.75770   0.03549   Biso      1.000     C          0.6269600000000001  
         C38       1.0000    0.23040   0.70480   0.05528   Biso      1.000     C          -0.019880000000000002         
         C39       1.0000    0.14507   0.87750   0.04795   Biso      1.000     C          -0.087672           
         C40       1.0000    0.34930   0.67400   0.69511   Biso      1.000     C          -0.092752           
         C41       1.0000    0.03923   0.82990   0.06353   Biso      1.000     C          -0.10188  
         C42       1.0000    0.52066   0.89440   0.58647   Biso      1.000     C          -0.074935           
         C43       1.0000    0.38968   0.89420   0.67910   Biso      1.000     C          -0.082993           
         C44       1.0000    0.10623   0.43320   0.09629   Biso      1.000     C          -0.104065           
         C45       1.0000    0.89377   0.56680   0.90371   Biso      1.000     C          -0.104066           
         C46       1.0000    0.21150   0.48320   0.08029   Biso      1.000     C          -0.085151           
         C47       1.0000    0.71150   0.01680   0.58029   Biso      1.000     C          -0.085156           
         C48       1.0000    0.88968   0.60580   0.17910   Biso      1.000     C          -0.082992           
         C49       1.0000    0.84930   0.82600   0.19511   Biso      1.000     C          -0.092753           
         C50       1.0000    0.78850   0.51680   0.91971   Biso      1.000     C          -0.085151           
         C51       1.0000    0.85395   0.87420   0.25632   Biso      1.000     C          -0.097175           
         C52       1.0000    0.60623   0.06680   0.59629   Biso      1.000     C          -0.10406099999999999          
         C53       1.0000    0.89645   0.70500   0.29980   Biso      1.000     C          -0.020159           
         C54       1.0000    0.89453   0.75640   0.36581   Biso      1.000     C          0.637446  
         C55       1.0000    0.02066   0.60560   0.08647   Biso      1.000     C          -0.074935           
         C56       1.0000    0.56331   0.98550   0.21733   Biso      1.000     C          -0.08884  
         Ca1       1.0000    0.40370   0.25583   0.95839   Biso      1.000     Ca          1.445767  
         Ca2       1.0000    0.59630   0.74417   0.04161   Biso      1.000     Ca          1.445768  
         Ca3       1.0000    0.90370   0.24417   0.45839   Biso      1.000     Ca          1.445767  
         Ca4       1.0000    0.09630   0.75583   0.54161   Biso      1.000     Ca          1.445768  
         H1        1.0000    0.03430   0.62990   0.68750   Biso      1.000     H          0.12352300000000001           
         H2        1.0000    0.03710   0.71260   0.79010   Biso      1.000     H          0.11471500000000001           
         H3        1.0000    0.65930   0.46980   0.53210   Biso      1.000     H          0.11030999999999999           
         H4        1.0000    0.18060   0.05960   0.83480   Biso      1.000     H          0.124547  
         H5        1.0000    0.48090   0.55160   0.55860   Biso      1.000     H          0.123412  
         H6        1.0000    0.72940   0.63370   0.91360   Biso      1.000     H          0.127216  
         H7        1.0000    0.59280   0.21700   0.61370   Biso      1.000     H          0.11618599999999998           
         H8        1.0000    0.90720   0.71700   0.88630   Biso      1.000     H          0.11618699999999998           
         H9        1.0000    0.77060   0.13370   0.58640   Biso      1.000     H          0.127216  
         H10       1.0000    0.31940   0.55960   0.66520   Biso      1.000     H          0.124547  
         H11       1.0000    0.32780   0.47560   0.76850   Biso      1.000     H          0.106124  
         H12       1.0000    0.46570   0.12990   0.81250   Biso      1.000     H          0.12352300000000001           
         H13       1.0000    0.17220   0.97560   0.73150   Biso      1.000     H          0.106124  
         H14       1.0000    0.53710   0.78740   0.29010   Biso      1.000     H          0.11471500000000001           
         H15       1.0000    0.84070   0.96980   0.96790   Biso      1.000     H          0.11030999999999999           
         H16       1.0000    0.15930   0.03020   0.03210   Biso      1.000     H          0.11030999999999999           
         H17       1.0000    0.98090   0.94840   0.05860   Biso      1.000     H          0.123412  
         H18       1.0000    0.09280   0.28300   0.11370   Biso      1.000     H          0.11618699999999998           
         H19       1.0000    0.27060   0.36630   0.08640   Biso      1.000     H          0.12721500000000002           
         H20       1.0000    0.81940   0.94040   0.16520   Biso      1.000     H          0.124547  
         H21       1.0000    0.82780   0.02440   0.26850   Biso      1.000     H          0.106124  
         H22       1.0000    0.96570   0.37010   0.31250   Biso      1.000     H          0.12352300000000001           
         H23       1.0000    0.96290   0.28740   0.20990   Biso      1.000     H          0.11471600000000001           
         H24       1.0000    0.01910   0.05160   0.94140   Biso      1.000     H          0.123412  
         H25       1.0000    0.34070   0.53020   0.46790   Biso      1.000     H          0.11030999999999999           
         H26       1.0000    0.51910   0.44840   0.44140   Biso      1.000     H          0.123412  
         H27       1.0000    0.46290   0.21260   0.70990   Biso      1.000     H          0.11471600000000001           
         H28       1.0000    0.22940   0.86630   0.41360   Biso      1.000     H          0.12721500000000002           
         H29       1.0000    0.40720   0.78300   0.38630   Biso      1.000     H          0.11618699999999998           
         H30       1.0000    0.67220   0.52440   0.23150   Biso      1.000     H          0.106124  
         H31       1.0000    0.53430   0.87010   0.18750   Biso      1.000     H          0.123522  
         H32       1.0000    0.68060   0.44040   0.33480   Biso      1.000     H          0.124547  
         O1        1.0000    0.59535   0.41860   0.97329   Biso      1.000     O          -0.681966           
         O2        1.0000    0.40465   0.58140   0.02671   Biso      1.000     O          -0.681966           
         O3        1.0000    0.37065   0.97180   0.03024   Biso      1.000     O          -0.637497           
         O4        1.0000    0.80386   0.69540   0.06651   Biso      1.000     O          -0.563569           
         O5        1.0000    0.86886   0.27930   0.09538   Biso      1.000     O          -0.5015569999999999           
         O6        1.0000    0.88713   0.97230   0.38011   Biso      1.000     O          -0.650233           
         O7        1.0000    0.89872   0.57940   0.40022   Biso      1.000     O          -0.651899           
         O8        1.0000    0.10128   0.42060   0.59978   Biso      1.000     O          -0.651899           
         O9        1.0000    0.11287   0.02770   0.61989   Biso      1.000     O          -0.650233           
         O10       1.0000    0.13114   0.72070   0.90462   Biso      1.000     O          -0.5015569999999999           
         O11       1.0000    0.19614   0.30460   0.93349   Biso      1.000     O          -0.563569           
         O12       1.0000    0.62935   0.02820   0.96976   Biso      1.000     O          -0.637497           
         O13       1.0000    0.61287   0.47230   0.11989   Biso      1.000     O          -0.650233           
         O14       1.0000    0.38713   0.52770   0.88011   Biso      1.000     O          -0.650233           
         O15       1.0000    0.09535   0.08140   0.47329   Biso      1.000     O          -0.681966           
         O16       1.0000    0.12935   0.47180   0.46976   Biso      1.000     O          -0.637497           
         O17       1.0000    0.69614   0.19540   0.43349   Biso      1.000     O          -0.563569           
         O18       1.0000    0.63114   0.77930   0.40462   Biso      1.000     O          -0.5015569999999999           
         O19       1.0000    0.39872   0.92060   0.90022   Biso      1.000     O          -0.651899           
         O20       1.0000    0.60128   0.07940   0.09978   Biso      1.000     O          -0.651899           
         O21       1.0000    0.36886   0.22070   0.59538   Biso      1.000     O          -0.5015569999999999           
         O22       1.0000    0.30386   0.80460   0.56651   Biso      1.000     O          -0.563569           
         O23       1.0000    0.87065   0.52820   0.53024   Biso      1.000     O          -0.637497           
         O24       1.0000    0.90465   0.91860   0.52671   Biso      1.000     O          -0.681966           
         S1        1.0000    0.61603   0.03388   0.39758   Biso      1.000     S          0.990049  
         S2        1.0000    0.88397   0.53388   0.10242   Biso      1.000     S          0.990049  
         S3        1.0000    0.11603   0.46612   0.89758   Biso      1.000     S          0.990049  
         S4        1.0000    0.38397   0.96612   0.60242   Biso      1.000     S          0.990049 