
##########################################################################
#               Crystallographic Information Format file
#               Produced by PyCifRW module
#
#  This is a CIF file.  CIF has been adopted by the International
#  Union of Crystallography as the standard for data archiving and
#  transmission.
#
#  For information on this file format, follow the CIF links at
#  http://www.iucr.org
##########################################################################

data_image0

_cell_length_a                          11.7292
_cell_length_b                          5.5685
_cell_length_c                          22.792
_cell_angle_alpha                       90
_cell_angle_beta                        100.493
_cell_angle_gamma                       90
_symmetry_space_group_name_H-M          'P 1'
_symmetry_int_tables_number             1
loop_
  _symmetry_equiv_pos_as_xyz
         'x, y, z' 
loop_
  _atom_site_label
  _atom_site_occupancy
  _atom_site_fract_x
  _atom_site_fract_y
  _atom_site_fract_z
  _atom_site_thermal_displace_type
  _atom_site_B_iso_or_equiv
  _atom_site_type_symbol
  _atom_site_charge
         C1        1.0000    0.49394   0.24060   0.26329   Biso      1.000     C          0.635088  
         C2        1.0000    0.72543   0.26140   0.15530   Biso      1.000     C          0.627415  
         C3        1.0000    0.70461   0.93790   0.00742   Biso      1.000     C          -0.10002  
         C4        1.0000    0.73102   0.98780   0.06798   Biso      1.000     C          -0.088528           
         C5        1.0000    0.70062   0.20820   0.08941   Biso      1.000     C          -0.016987           
         C6        1.0000    0.64612   0.38020   0.05007   Biso      1.000     C          -0.090587           
         C7        1.0000    0.61759   0.33260   0.98933   Biso      1.000     C          -0.099233           
         C8        1.0000    0.64545   0.10850   0.96889   Biso      1.000     C          -0.078299           
         C9        1.0000    0.71826   0.10880   0.85777   Biso      1.000     C          -0.087468           
         C10       1.0000    0.21927   0.17180   0.32861   Biso      1.000     C          -0.091905           
         C11       1.0000    0.39921   0.29200   0.29908   Biso      1.000     C          -0.017712           
         C12       1.0000    0.39703   0.50980   0.32898   Biso      1.000     C          -0.093917           
         C13       1.0000    0.30696   0.55950   0.35920   Biso      1.000     C          -0.102836           
         C14       1.0000    0.21826   0.39120   0.35777   Biso      1.000     C          -0.087467           
         C15       1.0000    0.22543   0.23860   0.65530   Biso      1.000     C          0.627415  
         C16       1.0000    0.20461   0.56210   0.50742   Biso      1.000     C          -0.10002  
         C17       1.0000    0.23102   0.51220   0.56798   Biso      1.000     C          -0.088528           
         C18       1.0000    0.31167   0.12360   0.29960   Biso      1.000     C          -0.09883  
         C19       1.0000    0.20062   0.29180   0.58941   Biso      1.000     C          -0.016987           
         C20       1.0000    0.80696   0.94050   0.85920   Biso      1.000     C          -0.102836           
         C21       1.0000    0.89921   0.20800   0.79908   Biso      1.000     C          -0.017712           
         C22       1.0000    0.78073   0.82820   0.67139   Biso      1.000     C          -0.091905           
         C23       1.0000    0.68833   0.87640   0.70040   Biso      1.000     C          -0.09883  
         C24       1.0000    0.60079   0.70800   0.70092   Biso      1.000     C          -0.017712           
         C25       1.0000    0.60297   0.49020   0.67102   Biso      1.000     C          -0.093917           
         C26       1.0000    0.69304   0.44050   0.64080   Biso      1.000     C          -0.102836           
         C27       1.0000    0.78174   0.60880   0.64223   Biso      1.000     C          -0.087467           
         C28       1.0000    0.77457   0.76140   0.34470   Biso      1.000     C          0.627415  
         C29       1.0000    0.89703   0.99020   0.82898   Biso      1.000     C          -0.093916           
         C30       1.0000    0.79539   0.43790   0.49258   Biso      1.000     C          -0.10002  
         C31       1.0000    0.79938   0.70820   0.41059   Biso      1.000     C          -0.016988           
         C32       1.0000    0.85388   0.88020   0.44993   Biso      1.000     C          -0.090586           
         C33       1.0000    0.88241   0.83260   0.51067   Biso      1.000     C          -0.099234           
         C34       1.0000    0.85455   0.60850   0.53111   Biso      1.000     C          -0.078299           
         C35       1.0000    0.99394   0.25940   0.76329   Biso      1.000     C          0.635088  
         C36       1.0000    0.71927   0.32820   0.82861   Biso      1.000     C          -0.091904           
         C37       1.0000    0.81167   0.37640   0.79960   Biso      1.000     C          -0.09883  
         C38       1.0000    0.76898   0.48780   0.43202   Biso      1.000     C          -0.088526           
         C39       1.0000    0.14612   0.11980   0.55007   Biso      1.000     C          -0.090587           
         C40       1.0000    0.50606   0.75940   0.73671   Biso      1.000     C          0.635088  
         C41       1.0000    0.19304   0.05950   0.14080   Biso      1.000     C          -0.102836           
         C42       1.0000    0.00606   0.74060   0.23671   Biso      1.000     C          0.635088  
         C43       1.0000    0.18833   0.62360   0.20040   Biso      1.000     C          -0.09883  
         C44       1.0000    0.10079   0.79200   0.20092   Biso      1.000     C          -0.017712           
         C45       1.0000    0.10297   0.00980   0.17102   Biso      1.000     C          -0.093916           
         C46       1.0000    0.11759   0.16740   0.48933   Biso      1.000     C          -0.099234           
         C47       1.0000    0.28174   0.89120   0.14223   Biso      1.000     C          -0.087468           
         C48       1.0000    0.27457   0.73860   0.84470   Biso      1.000     C          0.627415  
         C49       1.0000    0.29539   0.06210   0.99258   Biso      1.000     C          -0.10002  
         C50       1.0000    0.26898   0.01220   0.93202   Biso      1.000     C          -0.088528           
         C51       1.0000    0.29938   0.79180   0.91059   Biso      1.000     C          -0.016987           
         C52       1.0000    0.35388   0.61980   0.94993   Biso      1.000     C          -0.090587           
         C53       1.0000    0.38241   0.66740   0.01067   Biso      1.000     C          -0.099234           
         C54       1.0000    0.35455   0.89150   0.03111   Biso      1.000     C          -0.078299           
         C55       1.0000    0.14545   0.39150   0.46889   Biso      1.000     C          -0.078299           
         C56       1.0000    0.28073   0.67180   0.17139   Biso      1.000     C          -0.091904           
         Ca1       1.0000    0.13749   0.74380   0.72222   Biso      1.000     Ca          1.447678  
         Ca2       1.0000    0.36251   0.24380   0.77778   Biso      1.000     Ca          1.447678  
         Ca3       1.0000    0.63749   0.75620   0.22222   Biso      1.000     Ca          1.447678  
         Ca4       1.0000    0.86251   0.25620   0.27778   Biso      1.000     Ca          1.447678  
         H1        1.0000    0.84120   0.94180   0.67150   Biso      1.000     H          0.125291  
         H2        1.0000    0.27330   0.21090   0.00760   Biso      1.000     H          0.116149  
         H3        1.0000    0.81490   0.52600   0.77990   Biso      1.000     H          0.107638  
         H4        1.0000    0.23010   0.12860   0.90510   Biso      1.000     H          0.127136  
         H5        1.0000    0.65880   0.44180   0.82850   Biso      1.000     H          0.125291  
         H6        1.0000    0.15880   0.05820   0.32850   Biso      1.000     H          0.125291  
         H7        1.0000    0.26990   0.62860   0.59490   Biso      1.000     H          0.127136  
         H8        1.0000    0.37200   0.46760   0.93520   Biso      1.000     H          0.111399  
         H9        1.0000    0.92000   0.95020   0.53760   Biso      1.000     H          0.123677  
         H10       1.0000    0.87200   0.03240   0.43520   Biso      1.000     H          0.111399  
         H11       1.0000    0.42000   0.54980   0.03760   Biso      1.000     H          0.123677  
         H12       1.0000    0.73010   0.37140   0.40510   Biso      1.000     H          0.127136  
         H13       1.0000    0.12800   0.96760   0.56480   Biso      1.000     H          0.111399  
         H14       1.0000    0.77330   0.28910   0.50760   Biso      1.000     H          0.116149  
         H15       1.0000    0.69420   0.29420   0.61950   Biso      1.000     H          0.115397  
         H16       1.0000    0.54300   0.37580   0.67130   Biso      1.000     H          0.124621  
         H17       1.0000    0.68510   0.02600   0.72010   Biso      1.000     H          0.107638  
         H18       1.0000    0.95700   0.87580   0.82870   Biso      1.000     H          0.124621  
         H19       1.0000    0.80580   0.79420   0.88050   Biso      1.000     H          0.115397  
         H20       1.0000    0.22670   0.71090   0.49240   Biso      1.000     H          0.116149  
         H21       1.0000    0.18510   0.47400   0.22010   Biso      1.000     H          0.107638  
         H22       1.0000    0.34120   0.55820   0.17150   Biso      1.000     H          0.125291  
         H23       1.0000    0.31490   0.97400   0.27990   Biso      1.000     H          0.107638  
         H24       1.0000    0.30580   0.70580   0.38050   Biso      1.000     H          0.115397  
         H25       1.0000    0.58000   0.45020   0.96240   Biso      1.000     H          0.123677  
         H26       1.0000    0.62800   0.53240   0.06480   Biso      1.000     H          0.111399  
         H27       1.0000    0.45700   0.62420   0.32870   Biso      1.000     H          0.124621  
         H28       1.0000    0.08000   0.04980   0.46240   Biso      1.000     H          0.123677  
         H29       1.0000    0.76990   0.87140   0.09490   Biso      1.000     H          0.127136  
         H30       1.0000    0.19420   0.20580   0.11950   Biso      1.000     H          0.115397  
         H31       1.0000    0.72670   0.78910   0.99240   Biso      1.000     H          0.116149  
         H32       1.0000    0.04300   0.12420   0.17130   Biso      1.000     H          0.124621  
         O1        1.0000    0.26084   0.91557   0.80924   Biso      1.000     O          -0.687406           
         O2        1.0000    0.26461   0.52420   0.82797   Biso      1.000     O          -0.636798           
         O3        1.0000    0.95767   0.91915   0.25482   Biso      1.000     O          -0.63998  
         O4        1.0000    0.73916   0.08443   0.19076   Biso      1.000     O          -0.687405           
         O5        1.0000    0.98643   0.52363   0.24585   Biso      1.000     O          -0.655275           
         O6        1.0000    0.41621   0.22042   0.11108   Biso      1.000     O          -0.503564           
         O7        1.0000    0.49514   0.80548   0.13020   Biso      1.000     O          -0.564126           
         O8        1.0000    0.73539   0.47580   0.17203   Biso      1.000     O          -0.636798           
         O9        1.0000    0.04233   0.08085   0.74518   Biso      1.000     O          -0.63998  
         O10       1.0000    0.01357   0.47637   0.75415   Biso      1.000     O          -0.655275           
         O11       1.0000    0.00486   0.30548   0.36980   Biso      1.000     O          -0.564126           
         O12       1.0000    0.58379   0.77958   0.88892   Biso      1.000     O          -0.503564           
         O13       1.0000    0.08379   0.72042   0.38892   Biso      1.000     O          -0.503564           
         O14       1.0000    0.23539   0.02420   0.67203   Biso      1.000     O          -0.636797           
         O15       1.0000    0.99514   0.69452   0.63020   Biso      1.000     O          -0.564126           
         O16       1.0000    0.91621   0.27958   0.61108   Biso      1.000     O          -0.503564           
         O17       1.0000    0.48643   0.97637   0.74585   Biso      1.000     O          -0.655275           
         O18       1.0000    0.45767   0.58085   0.75482   Biso      1.000     O          -0.63998  
         O19       1.0000    0.76461   0.97580   0.32797   Biso      1.000     O          -0.636798           
         O20       1.0000    0.76084   0.58443   0.30924   Biso      1.000     O          -0.687405           
         O21       1.0000    0.51357   0.02363   0.25415   Biso      1.000     O          -0.655275           
         O22       1.0000    0.54233   0.41915   0.24518   Biso      1.000     O          -0.63998  
         O23       1.0000    0.50486   0.19452   0.86980   Biso      1.000     O          -0.564126           
         O24       1.0000    0.23916   0.41557   0.69076   Biso      1.000     O          -0.687406           
         S1        1.0000    0.10083   0.46451   0.39286   Biso      1.000     S          0.991979  
         S2        1.0000    0.60083   0.03549   0.89286   Biso      1.000     S          0.991979  
         S3        1.0000    0.89917   0.53549   0.60714   Biso      1.000     S          0.991979  
         S4        1.0000    0.39917   0.96451   0.10714   Biso      1.000     S          0.991979 