
##########################################################################
#               Crystallographic Information Format file
#               Produced by PyCifRW module
#
#  This is a CIF file.  CIF has been adopted by the International
#  Union of Crystallography as the standard for data archiving and
#  transmission.
#
#  For information on this file format, follow the CIF links at
#  http://www.iucr.org
##########################################################################

data_image0

_cell_length_a                          8.6326
_cell_length_b                          28.1206
_cell_length_c                          15.3462
_cell_angle_alpha                       90
_cell_angle_beta                        90
_cell_angle_gamma                       90
_symmetry_space_group_name_H-M          'P 1'
_symmetry_int_tables_number             1
loop_
  _symmetry_equiv_pos_as_xyz
         'x, y, z' 
loop_
  _atom_site_label
  _atom_site_occupancy
  _atom_site_fract_x
  _atom_site_fract_y
  _atom_site_fract_z
  _atom_site_thermal_displace_type
  _atom_site_B_iso_or_equiv
  _atom_site_type_symbol
  _atom_site_charge
         C1        1.0000    0.35280   0.01050   0.83530   Biso      1.000     C          0.646317  
         C2        1.0000    0.48840   0.42430   0.01090   Biso      1.000     C          -0.16781300000000002          
         C3        1.0000    0.01160   0.92430   0.51090   Biso      1.000     C          -0.167818           
         C4        1.0000    0.79640   0.92180   0.39470   Biso      1.000     C          0.637633  
         C5        1.0000    0.71060   0.22460   0.63150   Biso      1.000     C          -0.164438           
         C6        1.0000    0.89870   0.97450   0.59890   Biso      1.000     C          0.08515199999999999           
         C7        1.0000    0.89870   0.52550   0.59890   Biso      1.000     C          0.08515199999999999           
         C8        1.0000    0.02810   0.95010   0.58760   Biso      1.000     C          -0.1699   
         C9        1.0000    0.86920   0.93380   0.47780   Biso      1.000     C          0.070187  
         C10       1.0000    0.71060   0.27540   0.63150   Biso      1.000     C          -0.164439           
         C11       1.0000    0.85120   0.16460   0.72990   Biso      1.000     C          0.6274350000000001  
         C12       1.0000    0.80540   0.21120   0.69620   Biso      1.000     C          0.09117   
         C13       1.0000    0.85280   0.01050   0.66470   Biso      1.000     C          0.646317  
         C14       1.0000    0.79640   0.57820   0.39470   Biso      1.000     C          0.637633  
         C15       1.0000    0.01160   0.57570   0.51090   Biso      1.000     C          -0.167818           
         C16       1.0000    0.13080   0.06620   0.52220   Biso      1.000     C          0.070174  
         C17       1.0000    0.02810   0.54990   0.58760   Biso      1.000     C          -0.1699   
         C18       1.0000    0.98840   0.07570   0.48910   Biso      1.000     C          -0.1678   
         C19       1.0000    0.20360   0.07820   0.60530   Biso      1.000     C          0.637634  
         C20       1.0000    0.86920   0.56620   0.47780   Biso      1.000     C          0.070186  
         C21       1.0000    0.97190   0.04990   0.41240   Biso      1.000     C          -0.16993699999999998          
         C22       1.0000    0.80540   0.28880   0.69620   Biso      1.000     C          0.09117   
         C23       1.0000    0.85120   0.33540   0.72990   Biso      1.000     C          0.6274350000000001  
         C24       1.0000    0.48840   0.07570   0.01090   Biso      1.000     C          -0.167818           
         C25       1.0000    0.70360   0.07820   0.89470   Biso      1.000     C          0.637633  
         C26       1.0000    0.14880   0.83540   0.27010   Biso      1.000     C          0.6274350000000001  
         C27       1.0000    0.78940   0.77540   0.13150   Biso      1.000     C          -0.164438           
         C28       1.0000    0.30540   0.21120   0.80380   Biso      1.000     C          0.091145  
         C29       1.0000    0.60130   0.02550   0.09890   Biso      1.000     C          0.08515199999999999           
         C30       1.0000    0.47190   0.04990   0.08760   Biso      1.000     C          -0.1699   
         C31       1.0000    0.63080   0.06620   0.97780   Biso      1.000     C          0.070186  
         C32       1.0000    0.10130   0.02550   0.40110   Biso      1.000     C          0.085185  
         C33       1.0000    0.28940   0.77540   0.36850   Biso      1.000     C          -0.164442           
         C34       1.0000    0.64880   0.83540   0.22990   Biso      1.000     C          0.6274350000000001  
         C35       1.0000    0.69460   0.78880   0.19620   Biso      1.000     C          0.09117   
         C36       1.0000    0.64720   0.98950   0.16470   Biso      1.000     C          0.646317  
         C37       1.0000    0.19460   0.78880   0.30380   Biso      1.000     C          0.09117   
         C38       1.0000    0.51160   0.57570   0.98910   Biso      1.000     C          -0.167818           
         C39       1.0000    0.85280   0.48950   0.66470   Biso      1.000     C          0.646317  
         C40       1.0000    0.51160   0.92430   0.98910   Biso      1.000     C          -0.167818           
         C41       1.0000    0.29640   0.92180   0.10530   Biso      1.000     C          0.637633  
         C42       1.0000    0.39870   0.97450   0.90110   Biso      1.000     C          0.08515199999999999           
         C43       1.0000    0.14720   0.51050   0.33530   Biso      1.000     C          0.646317  
         C44       1.0000    0.29640   0.57820   0.10530   Biso      1.000     C          0.637633  
         C45       1.0000    0.19460   0.71120   0.30380   Biso      1.000     C          0.091145  
         C46       1.0000    0.63080   0.43380   0.97780   Biso      1.000     C          0.070186  
         C47       1.0000    0.52810   0.95010   0.91240   Biso      1.000     C          -0.1699   
         C48       1.0000    0.98840   0.42430   0.48910   Biso      1.000     C          -0.167818           
         C49       1.0000    0.47190   0.45010   0.08760   Biso      1.000     C          -0.169936           
         C50       1.0000    0.28940   0.72460   0.36850   Biso      1.000     C          -0.164412           
         C51       1.0000    0.10130   0.47450   0.40110   Biso      1.000     C          0.08515199999999999           
         C52       1.0000    0.14880   0.66460   0.27010   Biso      1.000     C          0.627438  
         C53       1.0000    0.97190   0.45010   0.41240   Biso      1.000     C          -0.1699   
         C54       1.0000    0.13080   0.43380   0.52220   Biso      1.000     C          0.070186  
         C55       1.0000    0.20360   0.42180   0.60530   Biso      1.000     C          0.637633  
         C56       1.0000    0.21060   0.22460   0.86850   Biso      1.000     C          -0.164412           
         C57       1.0000    0.60130   0.47450   0.09890   Biso      1.000     C          0.085185  
         C58       1.0000    0.64880   0.66460   0.22990   Biso      1.000     C          0.6274350000000001  
         C59       1.0000    0.70360   0.42180   0.89470   Biso      1.000     C          0.637633  
         C60       1.0000    0.14720   0.98950   0.33530   Biso      1.000     C          0.646314  
         C61       1.0000    0.21060   0.27540   0.86850   Biso      1.000     C          -0.164442           
         C62       1.0000    0.39870   0.52550   0.90110   Biso      1.000     C          0.08515199999999999           
         C63       1.0000    0.64720   0.51050   0.16470   Biso      1.000     C          0.646314  
         C64       1.0000    0.36920   0.93380   0.02220   Biso      1.000     C          0.070186  
         C65       1.0000    0.52810   0.54990   0.91240   Biso      1.000     C          -0.1699   
         C66       1.0000    0.35120   0.16460   0.77010   Biso      1.000     C          0.627438  
         C67       1.0000    0.78940   0.72460   0.13150   Biso      1.000     C          -0.164439           
         C68       1.0000    0.69460   0.71120   0.19620   Biso      1.000     C          0.09117   
         C69       1.0000    0.35120   0.33540   0.77010   Biso      1.000     C          0.6274350000000001  
         C70       1.0000    0.30540   0.28880   0.80380   Biso      1.000     C          0.09117   
         C71       1.0000    0.35280   0.48950   0.83530   Biso      1.000     C          0.646317  
         C72       1.0000    0.36920   0.56620   0.02220   Biso      1.000     C          0.070187  
         Dy1       1.0000    0.05239   0.41328   0.79795   Biso      1.000     Dy          2.135691  
         Dy2       1.0000    0.44761   0.58672   0.29795   Biso      1.000     Dy          2.1356919999999997  
         Dy3       1.0000    0.55239   0.08672   0.70205   Biso      1.000     Dy          2.1356919999999997  
         Dy4       1.0000    0.55239   0.41328   0.70205   Biso      1.000     Dy          2.1356919999999997  
         Dy5       1.0000    0.44761   0.91328   0.29795   Biso      1.000     Dy          2.135691  
         Dy6       1.0000    0.94761   0.91328   0.20205   Biso      1.000     Dy          2.135691  
         Dy7       1.0000    0.05239   0.08672   0.79795   Biso      1.000     Dy          2.1356919999999997  
         Dy8       1.0000    0.94761   0.58672   0.20205   Biso      1.000     Dy          2.135691  
         H1        1.0000    0.11390   0.54990   0.62420   Biso      1.000     H          0.15953499999999998           
         H2        1.0000    0.65580   0.29520   0.59400   Biso      1.000     H          0.149446  
         H3        1.0000    0.08520   0.59580   0.48660   Biso      1.000     H          0.147798  
         H4        1.0000    0.84420   0.70480   0.09400   Biso      1.000     H          0.149446  
         H5        1.0000    0.38610   0.45010   0.12420   Biso      1.000     H          0.15953699999999998           
         H6        1.0000    0.08520   0.90420   0.48660   Biso      1.000     H          0.147798  
         H7        1.0000    0.41480   0.40420   0.98660   Biso      1.000     H          0.147798  
         H8        1.0000    0.34420   0.70480   0.40600   Biso      1.000     H          0.149444  
         H9        1.0000    0.15580   0.29520   0.90600   Biso      1.000     H          0.149446  
         H10       1.0000    0.58520   0.59580   0.01340   Biso      1.000     H          0.147798  
         H11       1.0000    0.88610   0.45010   0.37580   Biso      1.000     H          0.15953499999999998           
         H12       1.0000    0.15580   0.20480   0.90600   Biso      1.000     H          0.149444  
         H13       1.0000    0.58520   0.90420   0.01340   Biso      1.000     H          0.147798  
         H14       1.0000    0.61390   0.54990   0.87580   Biso      1.000     H          0.15953499999999998           
         H15       1.0000    0.91480   0.40420   0.51340   Biso      1.000     H          0.147798  
         H16       1.0000    0.61390   0.95010   0.87580   Biso      1.000     H          0.15953499999999998           
         H17       1.0000    0.65580   0.20480   0.59400   Biso      1.000     H          0.149446  
         H18       1.0000    0.91480   0.09580   0.51340   Biso      1.000     H          0.147797  
         H19       1.0000    0.34420   0.79520   0.40600   Biso      1.000     H          0.149447  
         H20       1.0000    0.38610   0.04990   0.12420   Biso      1.000     H          0.15953499999999998           
         H21       1.0000    0.84420   0.79520   0.09400   Biso      1.000     H          0.149446  
         H22       1.0000    0.41480   0.09580   0.98660   Biso      1.000     H          0.147798  
         H23       1.0000    0.88610   0.04990   0.37580   Biso      1.000     H          0.15953699999999998           
         H24       1.0000    0.11390   0.95010   0.62420   Biso      1.000     H          0.15953499999999998           
         O1        1.0000    0.20670   0.87164   0.30450   Biso      1.000     O          -0.7424970000000001           
         O2        1.0000    0.13480   0.75000   0.26250   Biso      1.000     O          -0.086588           
         O3        1.0000    0.36520   0.25000   0.76250   Biso      1.000     O          -0.086588           
         O4        1.0000    0.21540   0.02669   0.83810   Biso      1.000     O          -0.692821           
         O5        1.0000    0.28460   0.97331   0.33810   Biso      1.000     O          -0.692821           
         O6        1.0000    0.04900   0.83680   0.21050   Biso      1.000     O          -0.652452           
         O7        1.0000    0.04410   0.97730   0.28280   Biso      1.000     O          -0.651783           
         O8        1.0000    0.20510   0.03408   0.46740   Biso      1.000     O          -0.106697           
         O9        1.0000    0.33840   0.06260   0.61950   Biso      1.000     O          -0.707008           
         O10       1.0000    0.37360   0.89700   0.15510   Biso      1.000     O          -0.651655           
         O11       1.0000    0.29490   0.96592   0.96740   Biso      1.000     O          -0.106696           
         O12       1.0000    0.45590   0.02270   0.78280   Biso      1.000     O          -0.651783           
         O13       1.0000    0.45100   0.16320   0.71050   Biso      1.000     O          -0.652452           
         O14       1.0000    0.29330   0.12836   0.80450   Biso      1.000     O          -0.7424970000000001           
         O15       1.0000    0.16160   0.93740   0.11950   Biso      1.000     O          -0.707008           
         O16       1.0000    0.12640   0.10300   0.65510   Biso      1.000     O          -0.651656           
         O17       1.0000    0.79330   0.37164   0.69550   Biso      1.000     O          -0.7424970000000001           
         O18       1.0000    0.83840   0.43740   0.88050   Biso      1.000     O          -0.7070069999999999           
         O19       1.0000    0.79490   0.96592   0.53260   Biso      1.000     O          -0.106695           
         O20       1.0000    0.95590   0.02270   0.71720   Biso      1.000     O          -0.651783           
         O21       1.0000    0.95100   0.16320   0.78950   Biso      1.000     O          -0.652453           
         O22       1.0000    0.79330   0.12836   0.69550   Biso      1.000     O          -0.7424970000000001           
         O23       1.0000    0.21540   0.47331   0.83810   Biso      1.000     O          -0.692821           
         O24       1.0000    0.16160   0.56260   0.11950   Biso      1.000     O          -0.7070069999999999           
         O25       1.0000    0.37360   0.60300   0.15510   Biso      1.000     O          -0.651655           
         O26       1.0000    0.29490   0.53408   0.96740   Biso      1.000     O          -0.106695           
         O27       1.0000    0.87360   0.89700   0.34490   Biso      1.000     O          -0.651655           
         O28       1.0000    0.45590   0.47730   0.78280   Biso      1.000     O          -0.651783           
         O29       1.0000    0.29330   0.37164   0.80450   Biso      1.000     O          -0.7424970000000001           
         O30       1.0000    0.28460   0.52669   0.33810   Biso      1.000     O          -0.692821           
         O31       1.0000    0.33840   0.43740   0.61950   Biso      1.000     O          -0.7070069999999999           
         O32       1.0000    0.12640   0.39700   0.65510   Biso      1.000     O          -0.651655           
         O33       1.0000    0.20510   0.46592   0.46740   Biso      1.000     O          -0.106696           
         O34       1.0000    0.04410   0.52270   0.28280   Biso      1.000     O          -0.651783           
         O35       1.0000    0.04900   0.66320   0.21050   Biso      1.000     O          -0.652452           
         O36       1.0000    0.20670   0.62836   0.30450   Biso      1.000     O          -0.7424970000000001           
         O37       1.0000    0.45100   0.33680   0.71050   Biso      1.000     O          -0.652452           
         O38       1.0000    0.78460   0.52669   0.16190   Biso      1.000     O          -0.692821           
         O39       1.0000    0.66160   0.93740   0.38050   Biso      1.000     O          -0.7070069999999999           
         O40       1.0000    0.70670   0.87164   0.19550   Biso      1.000     O          -0.7424970000000001           
         O41       1.0000    0.62640   0.39700   0.84490   Biso      1.000     O          -0.651656           
         O42       1.0000    0.70510   0.46592   0.03260   Biso      1.000     O          -0.106698           
         O43       1.0000    0.54410   0.52270   0.21720   Biso      1.000     O          -0.651783           
         O44       1.0000    0.54900   0.66320   0.28950   Biso      1.000     O          -0.652453           
         O45       1.0000    0.70670   0.62836   0.19550   Biso      1.000     O          -0.7424970000000001           
         O46       1.0000    0.71540   0.47331   0.66190   Biso      1.000     O          -0.692821           
         O47       1.0000    0.66160   0.56260   0.38050   Biso      1.000     O          -0.7070069999999999           
         O48       1.0000    0.87360   0.60300   0.34490   Biso      1.000     O          -0.651655           
         O49       1.0000    0.71540   0.02669   0.66190   Biso      1.000     O          -0.692821           
         O50       1.0000    0.79490   0.53408   0.53260   Biso      1.000     O          -0.106696           
         O51       1.0000    0.95100   0.33680   0.78950   Biso      1.000     O          -0.652452           
         O52       1.0000    0.86520   0.25000   0.73750   Biso      1.000     O          -0.08659  
         O53       1.0000    0.78460   0.97331   0.16190   Biso      1.000     O          -0.692821           
         O54       1.0000    0.83840   0.06260   0.88050   Biso      1.000     O          -0.7070069999999999           
         O55       1.0000    0.62640   0.10300   0.84490   Biso      1.000     O          -0.651655           
         O56       1.0000    0.70510   0.03408   0.03260   Biso      1.000     O          -0.106696           
         O57       1.0000    0.54410   0.97730   0.21720   Biso      1.000     O          -0.651783           
         O58       1.0000    0.54900   0.83680   0.28950   Biso      1.000     O          -0.652452           
         O59       1.0000    0.95590   0.47730   0.71720   Biso      1.000     O          -0.651783           
         O60       1.0000    0.63480   0.75000   0.23750   Biso      1.000     O          -0.08659 