
##########################################################################
#               Crystallographic Information Format file
#               Produced by PyCifRW module
#
#  This is a CIF file.  CIF has been adopted by the International
#  Union of Crystallography as the standard for data archiving and
#  transmission.
#
#  For information on this file format, follow the CIF links at
#  http://www.iucr.org
##########################################################################

data_image0

_cell_length_a                          16.469
_cell_length_b                          15.5386
_cell_length_c                          14.54
_cell_angle_alpha                       90
_cell_angle_beta                        117.5
_cell_angle_gamma                       90
_symmetry_space_group_name_H-M          'P 1'
_symmetry_int_tables_number             1
loop_
  _symmetry_equiv_pos_as_xyz
         'x, y, z' 
loop_
  _atom_site_label
  _atom_site_occupancy
  _atom_site_fract_x
  _atom_site_fract_y
  _atom_site_fract_z
  _atom_site_thermal_displace_type
  _atom_site_B_iso_or_equiv
  _atom_site_type_symbol
  _atom_site_charge
         C1        1.0000    0.67495   0.23884   0.65850   Biso      1.000     C          -0.120867           
         C2        1.0000    0.82625   0.81024   0.27660   Biso      1.000     C          -0.077162           
         C3        1.0000    0.31237   0.68605   0.28872   Biso      1.000     C          -0.06935  
         C4        1.0000    0.22647   0.66792   0.20190   Biso      1.000     C          0.054608  
         C5        1.0000    0.20770   0.58745   0.15020   Biso      1.000     C          -0.15983  
         C6        1.0000    0.74370   0.82338   0.19020   Biso      1.000     C          -0.120373           
         C7        1.0000    0.11143   0.87817   0.67530   Biso      1.000     C          0.675166  
         C8        1.0000    0.34329   0.76871   0.83120   Biso      1.000     C          0.060707  
         C9        1.0000    0.42940   0.78890   0.91540   Biso      1.000     C          -0.142715           
         C10       1.0000    0.67495   0.76116   0.15850   Biso      1.000     C          -0.120869           
         C11       1.0000    0.44490   0.86710   0.96300   Biso      1.000     C          -0.097131           
         C12       1.0000    0.89382   0.88277   0.31110   Biso      1.000     C          0.678741  
         C13       1.0000    0.37590   0.92950   0.92990   Biso      1.000     C          -0.09619  
         C14       1.0000    0.29230   0.91255   0.84980   Biso      1.000     C          -0.159817           
         C15       1.0000    0.27353   0.83208   0.79810   Biso      1.000     C          0.054605  
         C16       1.0000    0.18763   0.81395   0.71128   Biso      1.000     C          -0.069352           
         C17       1.0000    0.77353   0.66792   0.29810   Biso      1.000     C          0.054608  
         C18       1.0000    0.17495   0.73884   0.65850   Biso      1.000     C          -0.120853           
         C19       1.0000    0.79230   0.58745   0.34980   Biso      1.000     C          -0.159831           
         C20       1.0000    0.24370   0.67662   0.69020   Biso      1.000     C          -0.12038  
         C21       1.0000    0.32625   0.68976   0.77660   Biso      1.000     C          -0.077159           
         C22       1.0000    0.27353   0.16792   0.29810   Biso      1.000     C          0.054608  
         C23       1.0000    0.87590   0.57050   0.42990   Biso      1.000     C          -0.096177           
         C24       1.0000    0.68763   0.68605   0.21128   Biso      1.000     C          -0.069338           
         C25       1.0000    0.89382   0.11723   0.81110   Biso      1.000     C          0.678741  
         C26       1.0000    0.82625   0.18976   0.77660   Biso      1.000     C          -0.077162           
         C27       1.0000    0.74370   0.17662   0.69020   Biso      1.000     C          -0.120375           
         C28       1.0000    0.18763   0.18605   0.21128   Biso      1.000     C          -0.069352           
         C29       1.0000    0.37590   0.07050   0.42990   Biso      1.000     C          -0.096188           
         C30       1.0000    0.17495   0.26116   0.15850   Biso      1.000     C          -0.120853           
         C31       1.0000    0.24370   0.32338   0.19020   Biso      1.000     C          -0.12038  
         C32       1.0000    0.32625   0.31024   0.27660   Biso      1.000     C          -0.077159           
         C33       1.0000    0.39382   0.38277   0.31110   Biso      1.000     C          0.678741  
         C34       1.0000    0.44490   0.13290   0.46300   Biso      1.000     C          -0.097141           
         C35       1.0000    0.17375   0.81024   0.22340   Biso      1.000     C          -0.077162           
         C36       1.0000    0.42940   0.21110   0.41540   Biso      1.000     C          -0.142705           
         C37       1.0000    0.25630   0.82338   0.30980   Biso      1.000     C          -0.120375           
         C38       1.0000    0.32505   0.76116   0.34150   Biso      1.000     C          -0.120855           
         C39       1.0000    0.61143   0.37817   0.67530   Biso      1.000     C          0.675165  
         C40       1.0000    0.84329   0.26871   0.83120   Biso      1.000     C          0.060707  
         C41       1.0000    0.34329   0.23129   0.33120   Biso      1.000     C          0.060704  
         C42       1.0000    0.92940   0.28890   0.91540   Biso      1.000     C          -0.142715           
         C43       1.0000    0.11143   0.12183   0.17530   Biso      1.000     C          0.675166  
         C44       1.0000    0.94490   0.36710   0.96300   Biso      1.000     C          -0.097131           
         C45       1.0000    0.10618   0.88277   0.18890   Biso      1.000     C          0.678741  
         C46       1.0000    0.87590   0.42950   0.92990   Biso      1.000     C          -0.09619  
         C47       1.0000    0.79230   0.41255   0.84980   Biso      1.000     C          -0.159817           
         C48       1.0000    0.77353   0.33208   0.79810   Biso      1.000     C          0.054604  
         C49       1.0000    0.68763   0.31395   0.71128   Biso      1.000     C          -0.069338           
         C50       1.0000    0.57060   0.21110   0.08460   Biso      1.000     C          -0.142714           
         C51       1.0000    0.12410   0.57050   0.07010   Biso      1.000     C          -0.096177           
         C52       1.0000    0.05510   0.63290   0.03700   Biso      1.000     C          -0.097143           
         C53       1.0000    0.39382   0.61723   0.81110   Biso      1.000     C          0.678741  
         C54       1.0000    0.88857   0.87817   0.82470   Biso      1.000     C          0.675166  
         C55       1.0000    0.60618   0.38277   0.18890   Biso      1.000     C          0.678741  
         C56       1.0000    0.67375   0.31024   0.22340   Biso      1.000     C          -0.077162           
         C57       1.0000    0.94490   0.63290   0.46300   Biso      1.000     C          -0.097142           
         C58       1.0000    0.65671   0.76871   0.66880   Biso      1.000     C          0.060707  
         C59       1.0000    0.75630   0.32338   0.30980   Biso      1.000     C          -0.120374           
         C60       1.0000    0.57060   0.78890   0.58460   Biso      1.000     C          -0.142715           
         C61       1.0000    0.55510   0.86710   0.53700   Biso      1.000     C          -0.097131           
         C62       1.0000    0.82505   0.26116   0.34150   Biso      1.000     C          -0.120869           
         C63       1.0000    0.62410   0.92950   0.57010   Biso      1.000     C          -0.09619  
         C64       1.0000    0.70770   0.91255   0.65020   Biso      1.000     C          -0.159817           
         C65       1.0000    0.72647   0.83208   0.70190   Biso      1.000     C          0.054605  
         C66       1.0000    0.81237   0.81395   0.78872   Biso      1.000     C          -0.069352           
         C67       1.0000    0.81237   0.18605   0.28872   Biso      1.000     C          -0.069336           
         C68       1.0000    0.82505   0.73884   0.84150   Biso      1.000     C          -0.120853           
         C69       1.0000    0.72647   0.16792   0.20190   Biso      1.000     C          0.054606  
         C70       1.0000    0.75630   0.67662   0.80980   Biso      1.000     C          -0.12038  
         C71       1.0000    0.67375   0.68976   0.72340   Biso      1.000     C          -0.077159           
         C72       1.0000    0.60618   0.61723   0.68890   Biso      1.000     C          0.678741  
         C73       1.0000    0.70770   0.08745   0.15020   Biso      1.000     C          -0.15983  
         C74       1.0000    0.62410   0.07050   0.07010   Biso      1.000     C          -0.096178           
         C75       1.0000    0.55510   0.13290   0.03700   Biso      1.000     C          -0.097133           
         C76       1.0000    0.38857   0.62183   0.32470   Biso      1.000     C          0.675166  
         C77       1.0000    0.15671   0.73129   0.16880   Biso      1.000     C          0.060704  
         C78       1.0000    0.29230   0.08745   0.34980   Biso      1.000     C          -0.159819           
         C79       1.0000    0.20770   0.41255   0.65020   Biso      1.000     C          -0.159829           
         C80       1.0000    0.05510   0.36710   0.53700   Biso      1.000     C          -0.097143           
         C81       1.0000    0.12410   0.42950   0.57010   Biso      1.000     C          -0.096177           
         C82       1.0000    0.84329   0.73129   0.33120   Biso      1.000     C          0.060704  
         C83       1.0000    0.15671   0.26871   0.66880   Biso      1.000     C          0.060706  
         C84       1.0000    0.22647   0.33208   0.70190   Biso      1.000     C          0.054607  
         C85       1.0000    0.31237   0.31395   0.78872   Biso      1.000     C          -0.069352           
         C86       1.0000    0.07060   0.28890   0.58460   Biso      1.000     C          -0.142705           
         C87       1.0000    0.61143   0.62183   0.17530   Biso      1.000     C          0.675165  
         C88       1.0000    0.32505   0.23884   0.84150   Biso      1.000     C          -0.120853           
         C89       1.0000    0.38857   0.37817   0.82470   Biso      1.000     C          0.675166  
         C90       1.0000    0.88857   0.12183   0.32470   Biso      1.000     C          0.675165  
         C91       1.0000    0.07060   0.71110   0.08460   Biso      1.000     C          -0.142704           
         C92       1.0000    0.25630   0.17662   0.80980   Biso      1.000     C          -0.12038  
         C93       1.0000    0.17375   0.18976   0.72340   Biso      1.000     C          -0.07716  
         C94       1.0000    0.10618   0.11723   0.68890   Biso      1.000     C          0.678741  
         C95       1.0000    0.65671   0.23129   0.16880   Biso      1.000     C          0.060705  
         C96       1.0000    0.92940   0.71110   0.41540   Biso      1.000     C          -0.142704           
         H1        1.0000    0.61260   0.01730   0.03710   Biso      1.000     H          0.103781  
         H2        1.0000    0.75330   0.04570   0.17140   Biso      1.000     H          0.110432  
         H3        1.0000    0.74670   0.54570   0.32860   Biso      1.000     H          0.110432  
         H4        1.0000    0.50200   0.12090   0.51820   Biso      1.000     H          0.101402  
         H5        1.0000    0.49800   0.12090   0.98180   Biso      1.000     H          0.101402  
         H6        1.0000    0.00200   0.62090   0.51820   Biso      1.000     H          0.101402  
         H7        1.0000    0.38740   0.01730   0.46290   Biso      1.000     H          0.103782  
         H8        1.0000    0.40700   0.56880   0.07400   Biso      1.000     H          0.501916  
         H9        1.0000    0.97610   0.75180   0.43860   Biso      1.000     H          0.117675  
         H10       1.0000    0.36430   0.49240   0.04300   Biso      1.000     H          0.497371  
         H11       1.0000    0.88060   0.27130   0.39990   Biso      1.000     H          0.11627   
         H12       1.0000    0.61940   0.77130   0.10010   Biso      1.000     H          0.116269  
         H13       1.0000    0.90700   0.06880   0.07400   Biso      1.000     H          0.501916  
         H14       1.0000    0.76640   0.37420   0.34730   Biso      1.000     H          0.113757  
         H15       1.0000    0.86430   0.99240   0.04300   Biso      1.000     H          0.497371  
         H16       1.0000    0.13570   0.99240   0.45700   Biso      1.000     H          0.497371  
         H17       1.0000    0.73360   0.87420   0.15270   Biso      1.000     H          0.113757  
         H18       1.0000    0.09300   0.06880   0.42600   Biso      1.000     H          0.501916  
         H19       1.0000    0.47610   0.25180   0.43860   Biso      1.000     H          0.117675  
         H20       1.0000    0.88740   0.51730   0.46290   Biso      1.000     H          0.103781  
         H21       1.0000    0.52390   0.25180   0.06140   Biso      1.000     H          0.117675  
         H22       1.0000    0.11940   0.27130   0.10010   Biso      1.000     H          0.116268  
         H23       1.0000    0.63570   0.50760   0.95700   Biso      1.000     H          0.497371  
         H24       1.0000    0.11260   0.51730   0.03710   Biso      1.000     H          0.103781  
         H25       1.0000    0.24670   0.04570   0.32860   Biso      1.000     H          0.110431  
         H26       1.0000    0.02390   0.24820   0.56140   Biso      1.000     H          0.117675  
         H27       1.0000    0.99800   0.37910   0.48180   Biso      1.000     H          0.101403  
         H28       1.0000    0.11260   0.48270   0.53710   Biso      1.000     H          0.103781  
         H29       1.0000    0.25330   0.45430   0.67140   Biso      1.000     H          0.110432  
         H30       1.0000    0.38060   0.22870   0.89990   Biso      1.000     H          0.116269  
         H31       1.0000    0.26640   0.12580   0.84730   Biso      1.000     H          0.113758  
         H32       1.0000    0.59300   0.43120   0.92600   Biso      1.000     H          0.501916  
         H33       1.0000    0.90700   0.93120   0.57400   Biso      1.000     H          0.501916  
         H34       1.0000    0.02390   0.75180   0.06140   Biso      1.000     H          0.117675  
         H35       1.0000    0.52390   0.74820   0.56140   Biso      1.000     H          0.117675  
         H36       1.0000    0.49800   0.87910   0.48180   Biso      1.000     H          0.101402  
         H37       1.0000    0.61260   0.98270   0.53710   Biso      1.000     H          0.103782  
         H38       1.0000    0.75330   0.95430   0.67140   Biso      1.000     H          0.110431  
         H39       1.0000    0.88060   0.72870   0.89990   Biso      1.000     H          0.116269  
         H40       1.0000    0.76640   0.62580   0.84730   Biso      1.000     H          0.113757  
         H41       1.0000    0.40700   0.43120   0.57400   Biso      1.000     H          0.501916  
         H42       1.0000    0.36430   0.50760   0.54300   Biso      1.000     H          0.497371  
         H43       1.0000    0.86430   0.00760   0.54300   Biso      1.000     H          0.497371  
         H44       1.0000    0.23360   0.62580   0.65270   Biso      1.000     H          0.113758  
         H45       1.0000    0.99800   0.62090   0.98180   Biso      1.000     H          0.101403  
         H46       1.0000    0.24670   0.95430   0.82860   Biso      1.000     H          0.110431  
         H47       1.0000    0.23360   0.37420   0.15270   Biso      1.000     H          0.113757  
         H48       1.0000    0.59300   0.56880   0.42600   Biso      1.000     H          0.501916  
         H49       1.0000    0.63570   0.49240   0.45700   Biso      1.000     H          0.497371  
         H50       1.0000    0.26640   0.87420   0.34730   Biso      1.000     H          0.113757  
         H51       1.0000    0.97610   0.24820   0.93860   Biso      1.000     H          0.117676  
         H52       1.0000    0.00200   0.37910   0.01820   Biso      1.000     H          0.101402  
         H53       1.0000    0.88740   0.48270   0.96290   Biso      1.000     H          0.103782  
         H54       1.0000    0.11940   0.72870   0.60010   Biso      1.000     H          0.116269  
         H55       1.0000    0.61940   0.22870   0.60010   Biso      1.000     H          0.11627   
         H56       1.0000    0.74670   0.45430   0.82860   Biso      1.000     H          0.110431  
         H57       1.0000    0.25330   0.54570   0.17140   Biso      1.000     H          0.110432  
         H58       1.0000    0.73360   0.12580   0.65270   Biso      1.000     H          0.113757  
         H59       1.0000    0.38740   0.98270   0.96290   Biso      1.000     H          0.103782  
         H60       1.0000    0.09300   0.93120   0.92600   Biso      1.000     H          0.501916  
         H61       1.0000    0.13570   0.00760   0.95700   Biso      1.000     H          0.497371  
         H62       1.0000    0.38060   0.77130   0.39990   Biso      1.000     H          0.116269  
         H63       1.0000    0.50200   0.87910   0.01820   Biso      1.000     H          0.101403  
         H64       1.0000    0.47610   0.74820   0.93860   Biso      1.000     H          0.117676  
         Mg1       1.0000    0.00000   0.00000   0.50000   Biso      1.000     Mg          1.38341   
         Mg2       1.0000    0.50000   0.50000   0.50000   Biso      1.000     Mg          1.38341   
         Mg3       1.0000    0.00000   0.00831   0.25000   Biso      1.000     Mg          1.387925  
         Mg4       1.0000    0.50000   0.50831   0.25000   Biso      1.000     Mg          1.387925  
         Mg5       1.0000    0.00000   0.00000   0.00000   Biso      1.000     Mg          1.38341   
         Mg6       1.0000    0.00000   0.99169   0.75000   Biso      1.000     Mg          1.387925  
         Mg7       1.0000    0.50000   0.49169   0.75000   Biso      1.000     Mg          1.387925  
         Mg8       1.0000    0.50000   0.50000   0.00000   Biso      1.000     Mg          1.38341   
         O1        1.0000    0.07563   0.90643   0.09774   Biso      1.000     O          -0.685343           
         O2        1.0000    0.41706   0.59467   0.41490   Biso      1.000     O          -0.670954           
         O3        1.0000    0.91553   0.01839   0.07755   Biso      1.000     O          -0.919002           
         O4        1.0000    0.41903   0.60150   0.26338   Biso      1.000     O          -0.682023           
         O5        1.0000    0.08799   0.91585   0.25518   Biso      1.000     O          -0.676572           
         O6        1.0000    0.58799   0.58415   0.75518   Biso      1.000     O          -0.676572           
         O7        1.0000    0.91903   0.10150   0.26338   Biso      1.000     O          -0.682023           
         O8        1.0000    0.57563   0.59357   0.59774   Biso      1.000     O          -0.685343           
         O9        1.0000    0.91706   0.90533   0.91490   Biso      1.000     O          -0.670954           
         O10       1.0000    0.91903   0.89850   0.76338   Biso      1.000     O          -0.682023           
         O11       1.0000    0.41553   0.48161   0.57755   Biso      1.000     O          -0.919002           
         O12       1.0000    0.08799   0.08415   0.75518   Biso      1.000     O          -0.676572           
         O13       1.0000    0.07563   0.09357   0.59774   Biso      1.000     O          -0.685343           
         O14       1.0000    0.41706   0.40533   0.91490   Biso      1.000     O          -0.670954           
         O15       1.0000    0.41903   0.39850   0.76338   Biso      1.000     O          -0.682023           
         O16       1.0000    0.91553   0.98161   0.57755   Biso      1.000     O          -0.919002           
         O17       1.0000    0.41201   0.58415   0.74482   Biso      1.000     O          -0.676572           
         O18       1.0000    0.42437   0.59357   0.90226   Biso      1.000     O          -0.685343           
         O19       1.0000    0.08294   0.90533   0.58510   Biso      1.000     O          -0.670954           
         O20       1.0000    0.08097   0.89850   0.73662   Biso      1.000     O          -0.682023           
         O21       1.0000    0.58447   0.48161   0.92245   Biso      1.000     O          -0.919002           
         O22       1.0000    0.91201   0.08415   0.74482   Biso      1.000     O          -0.676572           
         O23       1.0000    0.92437   0.09357   0.90226   Biso      1.000     O          -0.685343           
         O24       1.0000    0.58294   0.40533   0.58510   Biso      1.000     O          -0.670954           
         O25       1.0000    0.91706   0.09467   0.41490   Biso      1.000     O          -0.670954           
         O26       1.0000    0.57563   0.40643   0.09774   Biso      1.000     O          -0.685343           
         O27       1.0000    0.58799   0.41585   0.25518   Biso      1.000     O          -0.676572           
         O28       1.0000    0.08447   0.01839   0.42245   Biso      1.000     O          -0.919002           
         O29       1.0000    0.58097   0.60150   0.23662   Biso      1.000     O          -0.682023           
         O30       1.0000    0.58294   0.59467   0.08510   Biso      1.000     O          -0.670954           
         O31       1.0000    0.41553   0.51839   0.07755   Biso      1.000     O          -0.919002           
         O32       1.0000    0.92437   0.90643   0.40226   Biso      1.000     O          -0.685343           
         O33       1.0000    0.58447   0.51839   0.42245   Biso      1.000     O          -0.919002           
         O34       1.0000    0.08294   0.09467   0.08510   Biso      1.000     O          -0.670954           
         O35       1.0000    0.42437   0.40643   0.40226   Biso      1.000     O          -0.685343           
         O36       1.0000    0.41201   0.41585   0.24482   Biso      1.000     O          -0.676572           
         O37       1.0000    0.08447   0.98161   0.92245   Biso      1.000     O          -0.919002           
         O38       1.0000    0.58097   0.39850   0.73662   Biso      1.000     O          -0.682023           
         O39       1.0000    0.91201   0.91585   0.24482   Biso      1.000     O          -0.676572           
         O40       1.0000    0.08097   0.10150   0.23662   Biso      1.000     O          -0.682023 