
##########################################################################
#               Crystallographic Information Format file
#               Produced by PyCifRW module
#
#  This is a CIF file.  CIF has been adopted by the International
#  Union of Crystallography as the standard for data archiving and
#  transmission.
#
#  For information on this file format, follow the CIF links at
#  http://www.iucr.org
##########################################################################

data_image0

_cell_length_a                          10.1209
_cell_length_b                          13.9753
_cell_length_c                          18.0091
_cell_angle_alpha                       90
_cell_angle_beta                        90
_cell_angle_gamma                       90
_symmetry_space_group_name_H-M          'P 1'
_symmetry_int_tables_number             1
loop_
  _symmetry_equiv_pos_as_xyz
         'x, y, z' 
loop_
  _atom_site_label
  _atom_site_occupancy
  _atom_site_fract_x
  _atom_site_fract_y
  _atom_site_fract_z
  _atom_site_thermal_displace_type
  _atom_site_B_iso_or_equiv
  _atom_site_type_symbol
  _atom_site_charge
         C1        1.0000    0.20620   0.04950   0.27840   Biso      1.000     C          0.6390859999999999  
         C2        1.0000    0.39690   0.19360   0.09430   Biso      1.000     C          -0.281881           
         C3        1.0000    0.24340   0.06700   0.14250   Biso      1.000     C          -0.28323899999999996          
         C4        1.0000    0.36230   0.17440   0.23110   Biso      1.000     C          -0.27484200000000003          
         C5        1.0000    0.15200   0.21110   0.07510   Biso      1.000     C          -0.282302           
         C6        1.0000    0.27210   0.31840   0.16510   Biso      1.000     C          -0.291381           
         C7        1.0000    0.11790   0.19220   0.21220   Biso      1.000     C          -0.29039  
         C8        1.0000    0.26630   0.13970   0.07830   Biso      1.000     C          0.065966  
         C9        1.0000    0.38670   0.24710   0.16880   Biso      1.000     C          0.08284   
         C10       1.0000    0.23200   0.12040   0.21630   Biso      1.000     C          0.0654    
         C11       1.0000    0.14220   0.26500   0.15060   Biso      1.000     C          0.06245   
         C12       1.0000    0.28550   0.08860   0.00380   Biso      1.000     C          0.633899  
         C13       1.0000    0.52770   0.16560   0.85560   Biso      1.000     C          0.632528  
         C14       1.0000    0.51860   0.29950   0.17730   Biso      1.000     C          0.56526   
         C15       1.0000    0.10310   0.80640   0.59430   Biso      1.000     C          -0.281881           
         C16       1.0000    0.25660   0.93300   0.64250   Biso      1.000     C          -0.28323899999999996          
         C17       1.0000    0.13770   0.82560   0.73110   Biso      1.000     C          -0.27484200000000003          
         C18       1.0000    0.34800   0.78890   0.57510   Biso      1.000     C          -0.282302           
         C19       1.0000    0.22790   0.68160   0.66510   Biso      1.000     C          -0.291381           
         C20       1.0000    0.38210   0.80780   0.71220   Biso      1.000     C          -0.29039  
         C21       1.0000    0.23370   0.86030   0.57830   Biso      1.000     C          0.065966  
         C22       1.0000    0.11330   0.75290   0.66880   Biso      1.000     C          0.08284   
         C23       1.0000    0.35780   0.73500   0.65060   Biso      1.000     C          0.06245   
         C24       1.0000    0.21450   0.91140   0.50380   Biso      1.000     C          0.633899  
         C25       1.0000    0.98140   0.70050   0.67730   Biso      1.000     C          0.56526   
         C26       1.0000    0.02770   0.33440   0.14440   Biso      1.000     C          0.632528  
         C27       1.0000    0.29380   0.95050   0.77840   Biso      1.000     C          0.6390859999999999  
         C28       1.0000    0.70620   0.45050   0.72160   Biso      1.000     C          0.6390859999999999  
         C29       1.0000    0.78550   0.41140   0.99620   Biso      1.000     C          0.633899  
         C30       1.0000    0.60310   0.69360   0.40570   Biso      1.000     C          -0.281881           
         C31       1.0000    0.75660   0.56700   0.35750   Biso      1.000     C          -0.28323899999999996          
         C32       1.0000    0.63770   0.67440   0.26890   Biso      1.000     C          -0.27484200000000003          
         C33       1.0000    0.84800   0.71110   0.42490   Biso      1.000     C          -0.282301           
         C34       1.0000    0.72790   0.81840   0.33490   Biso      1.000     C          -0.291381           
         C35       1.0000    0.88210   0.69220   0.28780   Biso      1.000     C          -0.29039  
         C36       1.0000    0.73370   0.63970   0.42170   Biso      1.000     C          0.065966  
         C37       1.0000    0.61330   0.74710   0.33120   Biso      1.000     C          0.08284   
         C38       1.0000    0.76800   0.62040   0.28370   Biso      1.000     C          0.0654    
         C39       1.0000    0.85780   0.76500   0.34940   Biso      1.000     C          0.062449  
         C40       1.0000    0.71450   0.58860   0.49620   Biso      1.000     C          0.633899  
         C41       1.0000    0.01860   0.20050   0.82270   Biso      1.000     C          0.56526   
         C42       1.0000    0.48140   0.79950   0.32270   Biso      1.000     C          0.56526   
         C43       1.0000    0.97230   0.83440   0.35560   Biso      1.000     C          0.632528  
         C44       1.0000    0.89690   0.30640   0.90570   Biso      1.000     C          -0.281881           
         C45       1.0000    0.74340   0.43300   0.85750   Biso      1.000     C          -0.28323899999999996          
         C46       1.0000    0.86230   0.32560   0.76890   Biso      1.000     C          -0.27484200000000003          
         C47       1.0000    0.65200   0.28890   0.92490   Biso      1.000     C          -0.282302           
         C48       1.0000    0.77210   0.18160   0.83490   Biso      1.000     C          -0.291381           
         C49       1.0000    0.61790   0.30780   0.78780   Biso      1.000     C          -0.29039  
         C50       1.0000    0.76630   0.36030   0.92170   Biso      1.000     C          0.065966  
         C51       1.0000    0.88670   0.25290   0.83120   Biso      1.000     C          0.08284   
         C52       1.0000    0.73200   0.37960   0.78370   Biso      1.000     C          0.0654    
         C53       1.0000    0.64220   0.23500   0.84940   Biso      1.000     C          0.06245   
         C54       1.0000    0.79380   0.54950   0.22160   Biso      1.000     C          0.6390859999999999  
         C55       1.0000    0.47230   0.66560   0.64440   Biso      1.000     C          0.632528  
         C56       1.0000    0.26800   0.87960   0.71630   Biso      1.000     C          0.0654    
         H1        1.0000    0.58520   0.73990   0.44610   Biso      1.000     H          0.12185   
         H2        1.0000    0.16150   0.03030   0.13320   Biso      1.000     H          0.120449  
         H3        1.0000    0.31810   0.02130   0.14480   Biso      1.000     H          0.128497  
         H4        1.0000    0.35710   0.20790   0.27950   Biso      1.000     H          0.12166199999999999           
         H5        1.0000    0.43660   0.12840   0.23340   Biso      1.000     H          0.130178  
         H6        1.0000    0.06820   0.17680   0.06500   Biso      1.000     H          0.12261099999999998           
         H7        1.0000    0.16700   0.25740   0.03440   Biso      1.000     H          0.122866  
         H8        1.0000    0.52890   0.64750   0.40380   Biso      1.000     H          0.12315899999999999           
         H9        1.0000    0.26590   0.35390   0.21260   Biso      1.000     H          0.12167599999999999           
         H10       1.0000    0.03430   0.15760   0.20250   Biso      1.000     H          0.12268599999999999           
         H11       1.0000    0.10930   0.22580   0.26030   Biso      1.000     H          0.118824  
         H12       1.0000    0.41480   0.23990   0.05390   Biso      1.000     H          0.12185   
         H13       1.0000    0.02890   0.85250   0.59620   Biso      1.000     H          0.12315899999999999           
         H14       1.0000    0.33850   0.96970   0.63320   Biso      1.000     H          0.120449  
         H15       1.0000    0.18190   0.97870   0.64480   Biso      1.000     H          0.128497  
         H16       1.0000    0.14290   0.79210   0.77950   Biso      1.000     H          0.12166199999999999           
         H17       1.0000    0.06340   0.87160   0.73340   Biso      1.000     H          0.130178  
         H18       1.0000    0.43180   0.82320   0.56500   Biso      1.000     H          0.12261099999999998           
         H19       1.0000    0.33300   0.74260   0.53440   Biso      1.000     H          0.122866  
         H20       1.0000    0.21180   0.63490   0.62480   Biso      1.000     H          0.122688  
         H21       1.0000    0.23410   0.64610   0.71260   Biso      1.000     H          0.12167599999999999           
         H22       1.0000    0.46570   0.84240   0.70250   Biso      1.000     H          0.12268599999999999           
         H23       1.0000    0.39070   0.77420   0.76030   Biso      1.000     H          0.118824  
         H24       1.0000    0.08520   0.76010   0.55390   Biso      1.000     H          0.12185   
         H25       1.0000    0.47110   0.14750   0.09620   Biso      1.000     H          0.12315899999999999           
         H26       1.0000    0.28820   0.36510   0.12480   Biso      1.000     H          0.122688  
         H27       1.0000    0.53430   0.34240   0.79750   Biso      1.000     H          0.12268599999999999           
         H28       1.0000    0.83850   0.53030   0.36680   Biso      1.000     H          0.120449  
         H29       1.0000    0.68190   0.52130   0.35520   Biso      1.000     H          0.128497  
         H30       1.0000    0.60930   0.27420   0.73970   Biso      1.000     H          0.118824  
         H31       1.0000    0.56340   0.62840   0.26660   Biso      1.000     H          0.130178  
         H32       1.0000    0.93180   0.67680   0.43500   Biso      1.000     H          0.12261   
         H33       1.0000    0.83300   0.75740   0.46560   Biso      1.000     H          0.122866  
         H34       1.0000    0.71180   0.86510   0.37520   Biso      1.000     H          0.122688  
         H35       1.0000    0.73410   0.85390   0.28740   Biso      1.000     H          0.121677  
         H36       1.0000    0.96570   0.65760   0.29750   Biso      1.000     H          0.12268599999999999           
         H37       1.0000    0.89070   0.72580   0.23970   Biso      1.000     H          0.118824  
         H38       1.0000    0.64290   0.70790   0.22050   Biso      1.000     H          0.12166199999999999           
         H39       1.0000    0.91480   0.26010   0.94610   Biso      1.000     H          0.12185   
         H40       1.0000    0.97110   0.35250   0.90380   Biso      1.000     H          0.12315899999999999           
         H41       1.0000    0.76590   0.14610   0.78740   Biso      1.000     H          0.121677  
         H42       1.0000    0.78820   0.13490   0.87520   Biso      1.000     H          0.122688  
         H43       1.0000    0.56820   0.32320   0.93500   Biso      1.000     H          0.12261   
         H44       1.0000    0.66700   0.24260   0.96560   Biso      1.000     H          0.122866  
         H45       1.0000    0.85710   0.29210   0.72050   Biso      1.000     H          0.12166199999999999           
         H46       1.0000    0.81810   0.47870   0.85520   Biso      1.000     H          0.128497  
         H47       1.0000    0.66150   0.46970   0.86680   Biso      1.000     H          0.120449  
         H48       1.0000    0.93660   0.37160   0.76660   Biso      1.000     H          0.130178  
         O1        1.0000    0.36620   0.02070   0.00350   Biso      1.000     O          -0.576643           
         O2        1.0000    0.72920   0.53590   0.73240   Biso      1.000     O          -0.5149189999999999           
         O3        1.0000    0.52300   0.38830   0.16920   Biso      1.000     O          -0.554295           
         O4        1.0000    0.22540   0.11890   0.94930   Biso      1.000     O          -0.545812           
         O5        1.0000    0.55090   0.08180   0.87490   Biso      1.000     O          -0.581397           
         O6        1.0000    0.41400   0.19980   0.84180   Biso      1.000     O          -0.54767  
         O7        1.0000    0.66310   0.41510   0.66120   Biso      1.000     O          -0.606345           
         O8        1.0000    0.12280   0.24830   0.81330   Biso      1.000     O          -0.561887           
         O9        1.0000    0.83690   0.58490   0.16120   Biso      1.000     O          -0.606345           
         O10       1.0000    0.47700   0.88830   0.33080   Biso      1.000     O          -0.554295           
         O11       1.0000    0.37720   0.75170   0.31330   Biso      1.000     O          -0.561887           
         O12       1.0000    0.77080   0.46410   0.23240   Biso      1.000     O          -0.5149189999999999           
         O13       1.0000    0.08600   0.80020   0.34180   Biso      1.000     O          -0.54767  
         O14       1.0000    0.94910   0.91820   0.37490   Biso      1.000     O          -0.581397           
         O15       1.0000    0.72540   0.38110   0.05070   Biso      1.000     O          -0.545812           
         O16       1.0000    0.62280   0.25170   0.18670   Biso      1.000     O          -0.561887           
         O17       1.0000    0.86620   0.47930   0.99650   Biso      1.000     O          -0.576643           
         O18       1.0000    0.02300   0.11170   0.83080   Biso      1.000     O          -0.554295           
         O19       1.0000    0.22920   0.96410   0.26760   Biso      1.000     O          -0.5149199999999999           
         O20       1.0000    0.77460   0.61890   0.55070   Biso      1.000     O          -0.545812           
         O21       1.0000    0.91400   0.30020   0.15820   Biso      1.000     O          -0.54767  
         O22       1.0000    0.63380   0.52070   0.49650   Biso      1.000     O          -0.576643           
         O23       1.0000    0.16310   0.08490   0.33880   Biso      1.000     O          -0.606345           
         O24       1.0000    0.58600   0.69980   0.65820   Biso      1.000     O          -0.54767  
         O25       1.0000    0.33690   0.91510   0.83880   Biso      1.000     O          -0.606345           
         O26       1.0000    0.27080   0.03590   0.76760   Biso      1.000     O          -0.5149189999999999           
         O27       1.0000    0.44910   0.58180   0.62510   Biso      1.000     O          -0.581397           
         O28       1.0000    0.97700   0.61170   0.66920   Biso      1.000     O          -0.554295           
         O29       1.0000    0.13380   0.97930   0.50350   Biso      1.000     O          -0.576642           
         O30       1.0000    0.27460   0.88110   0.44930   Biso      1.000     O          -0.545812           
         O31       1.0000    0.05090   0.41820   0.12510   Biso      1.000     O          -0.581397           
         O32       1.0000    0.87720   0.74830   0.68670   Biso      1.000     O          -0.561887           
         Zn1       1.0000    0.26020   0.86410   0.34091   Biso      1.000     Zn          0.924134  
         Zn2       1.0000    0.05520   0.02352   0.41257   Biso      1.000     Zn          1.04429   
         Zn3       1.0000    0.23980   0.13590   0.84091   Biso      1.000     Zn          0.924134  
         Zn4       1.0000    0.44480   0.97648   0.91257   Biso      1.000     Zn          1.04429   
         Zn5       1.0000    0.73980   0.36410   0.15909   Biso      1.000     Zn          0.924134  
         Zn6       1.0000    0.94480   0.52352   0.08743   Biso      1.000     Zn          1.044291  
         Zn7       1.0000    0.76020   0.63590   0.65909   Biso      1.000     Zn          0.924134  
         Zn8       1.0000    0.55520   0.47648   0.58743   Biso      1.000     Zn          1.044291 