
##########################################################################
#               Crystallographic Information Format file
#               Produced by PyCifRW module
#
#  This is a CIF file.  CIF has been adopted by the International
#  Union of Crystallography as the standard for data archiving and
#  transmission.
#
#  For information on this file format, follow the CIF links at
#  http://www.iucr.org
##########################################################################

data_image0

_cell_length_a                          15.3904
_cell_length_b                          15.3904
_cell_length_c                          9.8586
_cell_angle_alpha                       90
_cell_angle_beta                        90
_cell_angle_gamma                       90
_symmetry_space_group_name_H-M          'P 1'
_symmetry_int_tables_number             1
loop_
  _symmetry_equiv_pos_as_xyz
         'x, y, z' 
loop_
  _atom_site_label
  _atom_site_occupancy
  _atom_site_fract_x
  _atom_site_fract_y
  _atom_site_fract_z
  _atom_site_thermal_displace_type
  _atom_site_B_iso_or_equiv
  _atom_site_type_symbol
  _atom_site_charge
         C1        1.0000    0.19480   0.68790   0.12080   Biso      1.000     C          -0.142973           
         C2        1.0000    0.89450   0.74090   0.00000   Biso      1.000     C          -0.139904           
         C3        1.0000    0.72710   0.83030   0.00000   Biso      1.000     C          0.08339500000000001           
         C4        1.0000    0.57550   0.73160   0.00000   Biso      1.000     C          -0.07699099999999999          
         C5        1.0000    0.02010   0.27740   0.00000   Biso      1.000     C          -0.14937999999999999          
         C6        1.0000    0.19630   0.02740   0.00000   Biso      1.000     C          0.212285  
         C7        1.0000    0.11330   0.16350   0.00000   Biso      1.000     C          0.190615  
         C8        1.0000    0.19100   0.11710   0.00000   Biso      1.000     C          -0.080323           
         C9        1.0000    0.10550   0.25910   0.00000   Biso      1.000     C          -0.139877           
         C10       1.0000    0.27290   0.16970   0.00000   Biso      1.000     C          0.08339500000000001           
         C11       1.0000    0.42450   0.26840   0.00000   Biso      1.000     C          -0.07699199999999999          
         C12       1.0000    0.72260   0.02010   0.00000   Biso      1.000     C          -0.14937999999999999          
         C13       1.0000    0.97260   0.19630   0.00000   Biso      1.000     C          0.212285  
         C14       1.0000    0.83650   0.11330   0.00000   Biso      1.000     C          0.190615  
         C15       1.0000    0.88290   0.19100   0.00000   Biso      1.000     C          -0.080323           
         C16       1.0000    0.74090   0.10550   0.00000   Biso      1.000     C          -0.139877           
         C17       1.0000    0.83030   0.27290   0.00000   Biso      1.000     C          0.08339500000000001           
         C18       1.0000    0.73160   0.42450   0.00000   Biso      1.000     C          -0.07699199999999999          
         C19       1.0000    0.27740   0.97990   0.00000   Biso      1.000     C          -0.14937999999999999          
         C20       1.0000    0.16350   0.88670   0.00000   Biso      1.000     C          0.190615  
         C21       1.0000    0.11710   0.80900   0.00000   Biso      1.000     C          -0.080323           
         C22       1.0000    0.25910   0.89450   0.00000   Biso      1.000     C          -0.139877           
         C23       1.0000    0.16970   0.72710   0.00000   Biso      1.000     C          0.083396  
         C24       1.0000    0.26840   0.57550   0.00000   Biso      1.000     C          -0.07699199999999999          
         C25       1.0000    0.61320   0.24440   0.61970   Biso      1.000     C          -0.067114           
         C26       1.0000    0.68790   0.19480   0.62080   Biso      1.000     C          -0.14297  
         C27       1.0000    0.38680   0.75560   0.61970   Biso      1.000     C          -0.067114           
         C28       1.0000    0.31210   0.80520   0.62080   Biso      1.000     C          -0.14297  
         C29       1.0000    0.80900   0.88290   0.00000   Biso      1.000     C          -0.080323           
         C30       1.0000    0.88670   0.83650   0.00000   Biso      1.000     C          0.190618  
         C31       1.0000    0.80370   0.97260   0.00000   Biso      1.000     C          0.212285  
         C32       1.0000    0.97990   0.72260   0.00000   Biso      1.000     C          -0.14935199999999998          
         C33       1.0000    0.02010   0.72260   0.50000   Biso      1.000     C          -0.14937899999999998          
         C34       1.0000    0.19630   0.97260   0.50000   Biso      1.000     C          0.212281  
         C35       1.0000    0.11330   0.83650   0.50000   Biso      1.000     C          0.190614  
         C36       1.0000    0.19100   0.88290   0.50000   Biso      1.000     C          -0.080323           
         C37       1.0000    0.10550   0.74090   0.50000   Biso      1.000     C          -0.139877           
         C38       1.0000    0.27290   0.83030   0.50000   Biso      1.000     C          0.08339500000000001           
         C39       1.0000    0.42450   0.73160   0.50000   Biso      1.000     C          -0.07698200000000001          
         C40       1.0000    0.97990   0.27740   0.50000   Biso      1.000     C          -0.14937899999999998          
         C41       1.0000    0.80370   0.02740   0.50000   Biso      1.000     C          0.21228400000000003           
         C42       1.0000    0.88670   0.16350   0.50000   Biso      1.000     C          0.190614  
         C43       1.0000    0.80900   0.11710   0.50000   Biso      1.000     C          -0.080323           
         C44       1.0000    0.89450   0.25910   0.50000   Biso      1.000     C          -0.139877           
         C45       1.0000    0.72710   0.16970   0.50000   Biso      1.000     C          0.083396  
         C46       1.0000    0.75560   0.61320   0.61970   Biso      1.000     C          -0.067114           
         C47       1.0000    0.57550   0.26840   0.50000   Biso      1.000     C          -0.07698200000000001          
         C48       1.0000    0.02740   0.19630   0.50000   Biso      1.000     C          0.21228400000000003           
         C49       1.0000    0.16350   0.11330   0.50000   Biso      1.000     C          0.190617  
         C50       1.0000    0.11710   0.19100   0.50000   Biso      1.000     C          -0.080323           
         C51       1.0000    0.25910   0.10550   0.50000   Biso      1.000     C          -0.139905           
         C52       1.0000    0.16970   0.27290   0.50000   Biso      1.000     C          0.08339500000000001           
         C53       1.0000    0.26840   0.42450   0.50000   Biso      1.000     C          -0.07699099999999999          
         C54       1.0000    0.72260   0.97990   0.50000   Biso      1.000     C          -0.14937899999999998          
         C55       1.0000    0.97260   0.80370   0.50000   Biso      1.000     C          0.21228400000000003           
         C56       1.0000    0.83650   0.88670   0.50000   Biso      1.000     C          0.190614  
         C57       1.0000    0.88290   0.80900   0.50000   Biso      1.000     C          -0.080323           
         C58       1.0000    0.74090   0.89450   0.50000   Biso      1.000     C          -0.139877           
         C59       1.0000    0.83030   0.72710   0.50000   Biso      1.000     C          0.08339500000000001           
         C60       1.0000    0.73160   0.57550   0.50000   Biso      1.000     C          -0.07698200000000001          
         C61       1.0000    0.27740   0.02010   0.50000   Biso      1.000     C          -0.149351           
         C62       1.0000    0.80520   0.68790   0.62080   Biso      1.000     C          -0.142969           
         C63       1.0000    0.02740   0.80370   0.00000   Biso      1.000     C          0.21228200000000003           
         C64       1.0000    0.80520   0.68790   0.37920   Biso      1.000     C          -0.14297200000000002          
         C65       1.0000    0.61320   0.75560   0.11970   Biso      1.000     C          -0.067105           
         C66       1.0000    0.61320   0.75560   0.88030   Biso      1.000     C          -0.067105           
         C67       1.0000    0.68790   0.80520   0.87920   Biso      1.000     C          -0.14297  
         C68       1.0000    0.75560   0.61320   0.38030   Biso      1.000     C          -0.067104           
         C69       1.0000    0.19480   0.31210   0.37920   Biso      1.000     C          -0.14297200000000002          
         C70       1.0000    0.24440   0.61320   0.88030   Biso      1.000     C          -0.067105           
         C71       1.0000    0.31210   0.19480   0.87920   Biso      1.000     C          -0.14297200000000002          
         C72       1.0000    0.24440   0.38680   0.38030   Biso      1.000     C          -0.067103           
         C73       1.0000    0.68790   0.19480   0.37920   Biso      1.000     C          -0.14297200000000002          
         C74       1.0000    0.61320   0.24440   0.38030   Biso      1.000     C          -0.067104           
         C75       1.0000    0.24440   0.38680   0.61970   Biso      1.000     C          -0.067105           
         C76       1.0000    0.75560   0.38680   0.88030   Biso      1.000     C          -0.067105           
         C77       1.0000    0.31210   0.80520   0.37920   Biso      1.000     C          -0.14297200000000002          
         C78       1.0000    0.80520   0.31210   0.87920   Biso      1.000     C          -0.14297  
         C79       1.0000    0.19480   0.68790   0.87920   Biso      1.000     C          -0.14297  
         C80       1.0000    0.68790   0.80520   0.12080   Biso      1.000     C          -0.14297  
         C81       1.0000    0.38680   0.75560   0.38030   Biso      1.000     C          -0.067104           
         C82       1.0000    0.31210   0.19480   0.12080   Biso      1.000     C          -0.14297200000000002          
         C83       1.0000    0.80520   0.31210   0.12080   Biso      1.000     C          -0.14297200000000002          
         C84       1.0000    0.38680   0.24440   0.88030   Biso      1.000     C          -0.067103           
         C85       1.0000    0.19480   0.31210   0.62080   Biso      1.000     C          -0.14297  
         C86       1.0000    0.24440   0.61320   0.11970   Biso      1.000     C          -0.067103           
         C87       1.0000    0.75560   0.38680   0.11970   Biso      1.000     C          -0.067103           
         C88       1.0000    0.38680   0.24440   0.11970   Biso      1.000     C          -0.067103           
         H1        1.0000    0.58770   0.26200   0.29690   Biso      1.000     H          0.12398800000000001           
         H2        1.0000    0.99530   0.66610   0.50000   Biso      1.000     H          0.148384  
         H3        1.0000    0.82230   0.28730   0.20490   Biso      1.000     H          0.110053  
         H4        1.0000    0.26200   0.58770   0.20310   Biso      1.000     H          0.12398800000000001           
         H5        1.0000    0.71270   0.17770   0.29510   Biso      1.000     H          0.110053  
         H6        1.0000    0.99530   0.33390   0.00000   Biso      1.000     H          0.14838900000000002           
         H7        1.0000    0.15190   0.70010   0.50000   Biso      1.000     H          0.15701099999999998           
         H8        1.0000    0.00470   0.66610   0.00000   Biso      1.000     H          0.148387  
         H9        1.0000    0.26200   0.41230   0.29690   Biso      1.000     H          0.12398800000000001           
         H10       1.0000    0.17770   0.71270   0.20490   Biso      1.000     H          0.110053  
         H11       1.0000    0.33390   0.99530   0.50000   Biso      1.000     H          0.148383  
         H12       1.0000    0.17770   0.28730   0.29510   Biso      1.000     H          0.110053  
         H13       1.0000    0.70010   0.84810   0.50000   Biso      1.000     H          0.15701099999999998           
         H14       1.0000    0.00470   0.33390   0.50000   Biso      1.000     H          0.148385  
         H15       1.0000    0.73800   0.58770   0.29690   Biso      1.000     H          0.12398800000000001           
         H16       1.0000    0.73800   0.41230   0.20310   Biso      1.000     H          0.12398800000000001           
         H17       1.0000    0.66610   0.00470   0.50000   Biso      1.000     H          0.148385  
         H18       1.0000    0.82230   0.71270   0.29510   Biso      1.000     H          0.110053  
         H19       1.0000    0.28730   0.82230   0.29510   Biso      1.000     H          0.110053  
         H20       1.0000    0.29990   0.15190   0.50000   Biso      1.000     H          0.157013  
         H21       1.0000    0.58770   0.73800   0.20310   Biso      1.000     H          0.12398800000000001           
         H22       1.0000    0.28730   0.17770   0.20490   Biso      1.000     H          0.110053  
         H23       1.0000    0.84810   0.29990   0.50000   Biso      1.000     H          0.15701099999999998           
         H24       1.0000    0.71270   0.82230   0.20490   Biso      1.000     H          0.110053  
         H25       1.0000    0.41230   0.26200   0.20310   Biso      1.000     H          0.12398800000000001           
         H26       1.0000    0.26200   0.41230   0.70310   Biso      1.000     H          0.12398800000000001           
         H27       1.0000    0.84810   0.70010   0.00000   Biso      1.000     H          0.157013  
         H28       1.0000    0.58770   0.73800   0.79690   Biso      1.000     H          0.12398800000000001           
         H29       1.0000    0.58770   0.26200   0.70310   Biso      1.000     H          0.12398900000000002           
         H30       1.0000    0.28730   0.17770   0.79510   Biso      1.000     H          0.110053  
         H31       1.0000    0.41230   0.73800   0.29690   Biso      1.000     H          0.12398800000000001           
         H32       1.0000    0.29990   0.84810   0.00000   Biso      1.000     H          0.15701099999999998           
         H33       1.0000    0.71270   0.17770   0.70490   Biso      1.000     H          0.110053  
         H34       1.0000    0.71270   0.82230   0.79510   Biso      1.000     H          0.110053  
         H35       1.0000    0.41230   0.73800   0.70310   Biso      1.000     H          0.12398900000000002           
         H36       1.0000    0.33390   0.00470   0.00000   Biso      1.000     H          0.14838900000000002           
         H37       1.0000    0.41230   0.26200   0.79690   Biso      1.000     H          0.12398800000000001           
         H38       1.0000    0.28730   0.82230   0.70490   Biso      1.000     H          0.110053  
         H39       1.0000    0.70010   0.15190   0.00000   Biso      1.000     H          0.15701099999999998           
         H40       1.0000    0.17770   0.71270   0.79510   Biso      1.000     H          0.110053  
         H41       1.0000    0.26200   0.58770   0.79690   Biso      1.000     H          0.12398800000000001           
         H42       1.0000    0.73800   0.58770   0.70310   Biso      1.000     H          0.12398900000000002           
         H43       1.0000    0.15190   0.29990   0.00000   Biso      1.000     H          0.15701099999999998           
         H44       1.0000    0.82230   0.28730   0.79510   Biso      1.000     H          0.110053  
         H45       1.0000    0.82230   0.71270   0.70490   Biso      1.000     H          0.110053  
         H46       1.0000    0.66610   0.99530   0.00000   Biso      1.000     H          0.14838900000000002           
         H47       1.0000    0.17770   0.28730   0.70490   Biso      1.000     H          0.110053  
         H48       1.0000    0.73800   0.41230   0.79690   Biso      1.000     H          0.12398800000000001           
         N1        1.0000    0.86960   0.97000   0.50000   Biso      1.000     N          -0.49254899999999996          
         N2        1.0000    0.97000   0.86960   0.00000   Biso      1.000     N          -0.49254899999999996          
         N3        1.0000    0.03000   0.13040   0.00000   Biso      1.000     N          -0.49254899999999996          
         N4        1.0000    0.86960   0.03000   0.00000   Biso      1.000     N          -0.49254899999999996          
         N5        1.0000    0.97000   0.13040   0.50000   Biso      1.000     N          -0.49254899999999996          
         N6        1.0000    0.03000   0.86960   0.50000   Biso      1.000     N          -0.49254899999999996          
         N7        1.0000    0.13040   0.03000   0.50000   Biso      1.000     N          -0.49254899999999996          
         N8        1.0000    0.13040   0.97000   0.00000   Biso      1.000     N          -0.49254899999999996          
         O1        1.0000    0.53060   0.37360   0.87770   Biso      1.000     O          -0.733803           
         O2        1.0000    0.00000   0.00000   0.75000   Biso      1.000     O          -0.638146           
         O3        1.0000    0.00000   0.00000   0.25000   Biso      1.000     O          -0.638145           
         O4        1.0000    0.37360   0.53060   0.62230   Biso      1.000     O          -0.733803           
         O5        1.0000    0.46940   0.37360   0.62230   Biso      1.000     O          -0.733803           
         O6        1.0000    0.62640   0.53060   0.12230   Biso      1.000     O          -0.733803           
         O7        1.0000    0.53060   0.62640   0.62230   Biso      1.000     O          -0.733803           
         O8        1.0000    0.37360   0.46940   0.12230   Biso      1.000     O          -0.733803           
         O9        1.0000    0.58960   0.74700   0.50000   Biso      1.000     O          -0.59517  
         O10       1.0000    0.62640   0.46940   0.62230   Biso      1.000     O          -0.733803           
         O11       1.0000    0.53060   0.37360   0.12230   Biso      1.000     O          -0.733803           
         O12       1.0000    0.53060   0.62640   0.37770   Biso      1.000     O          -0.733803           
         O13       1.0000    0.74700   0.58960   0.00000   Biso      1.000     O          -0.59517  
         O14       1.0000    0.41040   0.74700   0.00000   Biso      1.000     O          -0.59517  
         O15       1.0000    0.46940   0.37360   0.37770   Biso      1.000     O          -0.733803           
         O16       1.0000    0.25300   0.41040   0.00000   Biso      1.000     O          -0.59517  
         O17       1.0000    0.46940   0.62640   0.87770   Biso      1.000     O          -0.733803           
         O18       1.0000    0.46940   0.62640   0.12230   Biso      1.000     O          -0.733803           
         O19       1.0000    0.25300   0.58960   0.50000   Biso      1.000     O          -0.59517  
         O20       1.0000    0.58960   0.25300   0.00000   Biso      1.000     O          -0.59517  
         O21       1.0000    0.62640   0.53060   0.87770   Biso      1.000     O          -0.733803           
         O22       1.0000    0.37360   0.53060   0.37770   Biso      1.000     O          -0.733803           
         O23       1.0000    0.62640   0.46940   0.37770   Biso      1.000     O          -0.733803           
         O24       1.0000    0.41040   0.25300   0.50000   Biso      1.000     O          -0.59517  
         O25       1.0000    0.37360   0.46940   0.87770   Biso      1.000     O          -0.733803           
         O26       1.0000    0.74700   0.41040   0.50000   Biso      1.000     O          -0.59517  
         S1        1.0000    0.47399   0.67883   0.00000   Biso      1.000     S          1.2795370000000001  
         S2        1.0000    0.52601   0.32117   0.00000   Biso      1.000     S          1.2795370000000001  
         S3        1.0000    0.47399   0.32117   0.50000   Biso      1.000     S          1.279536  
         S4        1.0000    0.67883   0.52601   0.00000   Biso      1.000     S          1.2795370000000001  
         S5        1.0000    0.52601   0.67883   0.50000   Biso      1.000     S          1.279536  
         S6        1.0000    0.32117   0.52601   0.50000   Biso      1.000     S          1.2795370000000001  
         S7        1.0000    0.32117   0.47399   0.00000   Biso      1.000     S          1.2795370000000001  
         S8        1.0000    0.67883   0.47399   0.50000   Biso      1.000     S          1.279536  
         Sm1       1.0000    0.50000   0.50000   0.75000   Biso      1.000     Sm          2.3527869999999997  
         Sm2       1.0000    0.50000   0.50000   0.25000   Biso      1.000     Sm          2.3527869999999997  
         V1        1.0000    0.00000   0.00000   0.91200   Biso      1.000     V          0.9086    
         V2        1.0000    0.00000   0.00000   0.08800   Biso      1.000     V          0.907695  
         V3        1.0000    0.00000   0.00000   0.41200   Biso      1.000     V          0.908603  
         V4        1.0000    0.00000   0.00000   0.58800   Biso      1.000     V          0.9077 