
##########################################################################
#               Crystallographic Information Format file
#               Produced by PyCifRW module
#
#  This is a CIF file.  CIF has been adopted by the International
#  Union of Crystallography as the standard for data archiving and
#  transmission.
#
#  For information on this file format, follow the CIF links at
#  http://www.iucr.org
##########################################################################

data_image0

_cell_length_a                          10.39
_cell_length_b                          11.803
_cell_length_c                          11.934
_cell_angle_alpha                       82.967
_cell_angle_beta                        81.366
_cell_angle_gamma                       87.884
_symmetry_space_group_name_H-M          'P 1'
_symmetry_int_tables_number             1
loop_
  _symmetry_equiv_pos_as_xyz
         'x, y, z' 
loop_
  _atom_site_label
  _atom_site_occupancy
  _atom_site_fract_x
  _atom_site_fract_y
  _atom_site_fract_z
  _atom_site_thermal_displace_type
  _atom_site_B_iso_or_equiv
  _atom_site_type_symbol
  _atom_site_charge
         C1        1.0000    0.30470   0.56940   0.68150   Biso      1.000     C          -0.099344           
         C2        1.0000    0.59120   0.94440   0.92860   Biso      1.000     C          -0.140857           
         C3        1.0000    0.77490   0.04580   0.98720   Biso      1.000     C          -0.099893           
         C4        1.0000    0.40880   0.05560   0.07140   Biso      1.000     C          -0.140858           
         C5        1.0000    0.45400   0.39270   0.04200   Biso      1.000     C          -0.13856  
         C6        1.0000    0.41480   0.58250   0.95860   Biso      1.000     C          -0.141894           
         C7        1.0000    0.36910   0.47350   0.00020   Biso      1.000     C          0.088636  
         C8        1.0000    0.22700   0.44830   0.00030   Biso      1.000     C          -0.118772           
         C9        1.0000    0.62190   0.46400   0.52480   Biso      1.000     C          -0.10453  
         C10       1.0000    0.47280   0.50300   0.39020   Biso      1.000     C          -0.150848           
         C11       1.0000    0.59430   0.46700   0.41340   Biso      1.000     C          0.100974  
         C12       1.0000    0.69530   0.43060   0.31850   Biso      1.000     C          -0.099342           
         C13       1.0000    0.63160   0.02370   0.99280   Biso      1.000     C          0.106451  
         C14       1.0000    0.40570   0.53300   0.58660   Biso      1.000     C          0.100972  
         C15       1.0000    0.52720   0.49700   0.60980   Biso      1.000     C          -0.150843           
         C16       1.0000    0.53930   0.07920   0.06410   Biso      1.000     C          -0.125881           
         C17       1.0000    0.37810   0.53600   0.47520   Biso      1.000     C          -0.104528           
         C18       1.0000    0.46070   0.92080   0.93590   Biso      1.000     C          -0.12588  
         C19       1.0000    0.36840   0.97630   0.00720   Biso      1.000     C          0.10645   
         C20       1.0000    0.77300   0.55170   0.99970   Biso      1.000     C          -0.118771           
         C21       1.0000    0.22510   0.95420   0.01280   Biso      1.000     C          -0.099893           
         C22       1.0000    0.54600   0.60730   0.95800   Biso      1.000     C          -0.13856  
         C23       1.0000    0.58520   0.41750   0.04140   Biso      1.000     C          -0.141895           
         C24       1.0000    0.63090   0.52650   0.99980   Biso      1.000     C          0.088636  
         Eu1       1.0000    0.01954   0.76008   0.92468   Biso      1.000     Eu          1.4685    
         Eu2       1.0000    0.98046   0.23992   0.07532   Biso      1.000     Eu          1.468499  
         H1        1.0000    0.80150   0.54950   0.74470   Biso      1.000     H          0.442567  
         H2        1.0000    0.54610   0.49480   0.68380   Biso      1.000     H          0.119605  
         H3        1.0000    0.18270   0.46060   0.67370   Biso      1.000     H          0.38913   
         H4        1.0000    0.79740   0.51610   0.07230   Biso      1.000     H          0.11756   
         H5        1.0000    0.44660   0.82370   0.67130   Biso      1.000     H          0.45371   
         H6        1.0000    0.57610   0.67970   0.92870   Biso      1.000     H          0.113522  
         H7        1.0000    0.24300   0.04100   0.73330   Biso      1.000     H          0.453261  
         H8        1.0000    0.24080   0.78830   0.05290   Biso      1.000     H          0.398767  
         H9        1.0000    0.17950   0.97780   0.08450   Biso      1.000     H          0.120157  
         H10       1.0000    0.32850   0.53370   0.75430   Biso      1.000     H          0.083698  
         H11       1.0000    0.29620   0.56010   0.45820   Biso      1.000     H          0.128647  
         H12       1.0000    0.43480   0.86750   0.89280   Biso      1.000     H          0.114711  
         H13       1.0000    0.75660   0.68710   0.05410   Biso      1.000     H          0.399125  
         H14       1.0000    0.64160   0.36130   0.06860   Biso      1.000     H          0.118777  
         H15       1.0000    0.65260   0.90700   0.88030   Biso      1.000     H          0.120943  
         H16       1.0000    0.82050   0.02220   0.91550   Biso      1.000     H          0.120158  
         H17       1.0000    0.55340   0.17630   0.32870   Biso      1.000     H          0.453708  
         H18       1.0000    0.81730   0.53940   0.32630   Biso      1.000     H          0.389129  
         H19       1.0000    0.19850   0.45050   0.25530   Biso      1.000     H          0.442567  
         H20       1.0000    0.24340   0.31290   0.94590   Biso      1.000     H          0.399125  
         H21       1.0000    0.75700   0.95900   0.26670   Biso      1.000     H          0.45326   
         H22       1.0000    0.56520   0.13250   0.10720   Biso      1.000     H          0.114711  
         H23       1.0000    0.75920   0.21170   0.94710   Biso      1.000     H          0.398767  
         H24       1.0000    0.67150   0.46630   0.24570   Biso      1.000     H          0.083698  
         H25       1.0000    0.45390   0.50520   0.31620   Biso      1.000     H          0.119606  
         H26       1.0000    0.70380   0.43990   0.54180   Biso      1.000     H          0.128646  
         H27       1.0000    0.34740   0.09300   0.11970   Biso      1.000     H          0.120943  
         H28       1.0000    0.42390   0.32030   0.07130   Biso      1.000     H          0.113522  
         H29       1.0000    0.20260   0.48390   0.92770   Biso      1.000     H          0.117561  
         H30       1.0000    0.35840   0.63870   0.93140   Biso      1.000     H          0.118778  
         O1        1.0000    0.92170   0.37520   0.92750   Biso      1.000     O          -0.782291           
         O2        1.0000    0.80040   0.25870   0.21110   Biso      1.000     O          -0.754028           
         O3        1.0000    0.56660   0.24220   0.29960   Biso      1.000     O          -0.681297           
         O4        1.0000    0.74410   0.21900   0.42500   Biso      1.000     O          -0.667608           
         O5        1.0000    0.81990   0.46970   0.32810   Biso      1.000     O          -0.458316           
         O6        1.0000    0.07830   0.62480   0.07250   Biso      1.000     O          -0.78229  
         O7        1.0000    0.00950   0.42010   0.15140   Biso      1.000     O          -0.757298           
         O8        1.0000    0.19420   0.51370   0.21870   Biso      1.000     O          -0.673563           
         O9        1.0000    0.20270   0.32980   0.00910   Biso      1.000     O          -0.530073           
         O10       1.0000    0.18010   0.53030   0.67190   Biso      1.000     O          -0.458314           
         O11       1.0000    0.89560   0.85230   0.07010   Biso      1.000     O          -0.795937           
         O12       1.0000    0.19930   0.83570   0.01140   Biso      1.000     O          -0.525684           
         O13       1.0000    0.73390   0.94200   0.20820   Biso      1.000     O          -0.698217           
         O14       1.0000    0.99050   0.57990   0.84860   Biso      1.000     O          -0.757297           
         O15       1.0000    0.80580   0.48630   0.78130   Biso      1.000     O          -0.673563           
         O16       1.0000    0.25590   0.78100   0.57500   Biso      1.000     O          -0.667614           
         O17       1.0000    0.79730   0.67020   0.99090   Biso      1.000     O          -0.530073           
         O18       1.0000    0.94530   0.04210   0.13830   Biso      1.000     O          -0.786347           
         O19       1.0000    0.05470   0.95790   0.86170   Biso      1.000     O          -0.786346           
         O20       1.0000    0.10440   0.14770   0.92990   Biso      1.000     O          -0.795936           
         O21       1.0000    0.43340   0.75780   0.70040   Biso      1.000     O          -0.681298           
         O22       1.0000    0.19960   0.74130   0.78890   Biso      1.000     O          -0.754033           
         O23       1.0000    0.80070   0.16430   0.98860   Biso      1.000     O          -0.525684           
         O24       1.0000    0.26610   0.05800   0.79180   Biso      1.000     O          -0.698218           
         P1        1.0000    0.29459   0.72350   0.68571   Biso      1.000     P          1.285769  
         P2        1.0000    0.15264   0.03387   0.89445   Biso      1.000     P          1.314678  
         P3        1.0000    0.84736   0.96613   0.10555   Biso      1.000     P          1.314678  
         P4        1.0000    0.11627   0.50548   0.11598   Biso      1.000     P          1.292053  
         P5        1.0000    0.70541   0.27650   0.31429   Biso      1.000     P          1.285768  
         P6        1.0000    0.88373   0.49452   0.88402   Biso      1.000     P          1.292053 