
##########################################################################
#               Crystallographic Information Format file
#               Produced by PyCifRW module
#
#  This is a CIF file.  CIF has been adopted by the International
#  Union of Crystallography as the standard for data archiving and
#  transmission.
#
#  For information on this file format, follow the CIF links at
#  http://www.iucr.org
##########################################################################

data_image0

_cell_length_a                          10.337
_cell_length_b                          14.437
_cell_length_c                          19.42
_cell_angle_alpha                       90
_cell_angle_beta                        89.731
_cell_angle_gamma                       90
_symmetry_space_group_name_H-M          'P 1'
_symmetry_int_tables_number             1
loop_
  _symmetry_equiv_pos_as_xyz
         'x, y, z' 
loop_
  _atom_site_label
  _atom_site_occupancy
  _atom_site_fract_x
  _atom_site_fract_y
  _atom_site_fract_z
  _atom_site_thermal_displace_type
  _atom_site_B_iso_or_equiv
  _atom_site_type_symbol
  _atom_site_charge
         C1        1.0000    0.20820   0.52670   0.13060   Biso      1.000     C          0.59993   
         C2        1.0000    0.79230   0.02480   0.64330   Biso      1.000     C          0.612318  
         C3        1.0000    0.75640   0.06490   0.56590   Biso      1.000     C          -0.011278           
         C4        1.0000    0.64710   0.06750   0.53700   Biso      1.000     C          -0.094973           
         C5        1.0000    0.73110   0.13870   0.43570   Biso      1.000     C          -0.06611399999999999          
         C6        1.0000    0.72400   0.17250   0.36170   Biso      1.000     C          0.614395  
         C7        1.0000    0.86230   0.14460   0.47020   Biso      1.000     C          -0.119728           
         C8        1.0000    0.86780   0.10000   0.53450   Biso      1.000     C          -0.127235           
         C9        1.0000    0.23100   0.04930   0.75410   Biso      1.000     C          -0.154832           
         C10       1.0000    0.36490   0.91890   0.74530   Biso      1.000     C          0.610772  
         C11       1.0000    0.86600   0.79180   0.75290   Biso      1.000     C          0.5764630000000001  
         C12       1.0000    0.24300   0.96900   0.74420   Biso      1.000     C          0.22554200000000002           
         C13       1.0000    0.23080   0.56630   0.06200   Biso      1.000     C          -0.007281           
         C14       1.0000    0.12640   0.59560   0.03120   Biso      1.000     C          -0.107326           
         C15       1.0000    0.14430   0.64300   0.96550   Biso      1.000     C          -0.10749500000000001          
         C16       1.0000    0.64400   0.06430   0.96310   Biso      1.000     C          -0.101747           
         C17       1.0000    0.26570   0.63870   0.93280   Biso      1.000     C          -0.056704           
         C18       1.0000    0.37130   0.58000   0.96660   Biso      1.000     C          -0.10979900000000001          
         C19       1.0000    0.35600   0.56430   0.03690   Biso      1.000     C          -0.101742           
         C20       1.0000    0.20770   0.52480   0.35670   Biso      1.000     C          0.612318  
         C21       1.0000    0.24360   0.56490   0.43410   Biso      1.000     C          -0.011278           
         C22       1.0000    0.35290   0.56750   0.46300   Biso      1.000     C          -0.094973           
         C23       1.0000    0.37210   0.59250   0.52880   Biso      1.000     C          -0.087024           
         C24       1.0000    0.26890   0.63870   0.56430   Biso      1.000     C          -0.06611399999999999          
         C25       1.0000    0.27600   0.67250   0.63830   Biso      1.000     C          0.614395  
         C26       1.0000    0.13770   0.64460   0.52980   Biso      1.000     C          -0.119728           
         C27       1.0000    0.13220   0.60000   0.46550   Biso      1.000     C          -0.127235           
         C28       1.0000    0.76900   0.54930   0.24590   Biso      1.000     C          -0.154832           
         C29       1.0000    0.63510   0.41890   0.25470   Biso      1.000     C          0.610772  
         C30       1.0000    0.13400   0.29180   0.24710   Biso      1.000     C          0.5764630000000001  
         C31       1.0000    0.75700   0.46900   0.25580   Biso      1.000     C          0.22554200000000002           
         C32       1.0000    0.27850   0.66910   0.85570   Biso      1.000     C          0.612462  
         C33       1.0000    0.62870   0.08000   0.03340   Biso      1.000     C          -0.109797           
         C34       1.0000    0.62790   0.09250   0.47120   Biso      1.000     C          -0.087025           
         C35       1.0000    0.73430   0.13870   0.06720   Biso      1.000     C          -0.056705           
         C36       1.0000    0.85570   0.14300   0.03450   Biso      1.000     C          -0.10748900000000002          
         C37       1.0000    0.87360   0.09560   0.96880   Biso      1.000     C          -0.107373           
         C38       1.0000    0.76920   0.06630   0.93800   Biso      1.000     C          -0.007237           
         C39       1.0000    0.79180   0.02670   0.86940   Biso      1.000     C          0.5999270000000001  
         C40       1.0000    0.72150   0.16910   0.14430   Biso      1.000     C          0.612462  
         H1        1.0000    0.95530   0.08670   0.94970   Biso      1.000     H          0.132583  
         H2        1.0000    0.92360   0.17550   0.05440   Biso      1.000     H          0.128024  
         H3        1.0000    0.55890   0.05650   0.05820   Biso      1.000     H          0.132331  
         H4        1.0000    0.57380   0.05300   0.93460   Biso      1.000     H          0.13278   
         H5        1.0000    0.54990   0.08020   0.44930   Biso      1.000     H          0.125813  
         H6        1.0000    0.93280   0.17490   0.45050   Biso      1.000     H          0.13380899999999998           
         H7        1.0000    0.94700   0.09380   0.55650   Biso      1.000     H          0.11768800000000001           
         H8        1.0000    0.28600   0.07930   0.72010   Biso      1.000     H          0.172598  
         H9        1.0000    0.27160   0.06080   0.79840   Biso      1.000     H          0.185098  
         H10       1.0000    0.04470   0.58670   0.05030   Biso      1.000     H          0.132579  
         H11       1.0000    0.57500   0.05110   0.56310   Biso      1.000     H          0.11492899999999999           
         H12       1.0000    0.44110   0.55650   0.94180   Biso      1.000     H          0.132331  
         H13       1.0000    0.42620   0.55300   0.06540   Biso      1.000     H          0.13278   
         H14       1.0000    0.42500   0.55110   0.43690   Biso      1.000     H          0.11492899999999999           
         H15       1.0000    0.45010   0.58020   0.55070   Biso      1.000     H          0.12581199999999998           
         H16       1.0000    0.06720   0.67490   0.54950   Biso      1.000     H          0.13380899999999998           
         H17       1.0000    0.05300   0.59380   0.44350   Biso      1.000     H          0.11768800000000001           
         H18       1.0000    0.71400   0.57930   0.27990   Biso      1.000     H          0.172599  
         H19       1.0000    0.72840   0.56080   0.20160   Biso      1.000     H          0.185099  
         H20       1.0000    0.07640   0.67550   0.94560   Biso      1.000     H          0.128024  
         N1        1.0000    0.86830   0.41440   0.24580   Biso      1.000     N          -0.644817           
         N2        1.0000    0.62640   0.78250   0.74670   Biso      1.000     N          -0.615977           
         N3        1.0000    0.13170   0.91440   0.75420   Biso      1.000     N          -0.644816           
         N4        1.0000    0.37360   0.28250   0.25330   Biso      1.000     N          -0.615976           
         O1        1.0000    0.39410   0.66330   0.83570   Biso      1.000     O          -0.534041           
         O2        1.0000    0.18310   0.71070   0.83700   Biso      1.000     O          -0.493629           
         O3        1.0000    0.10350   0.53160   0.16210   Biso      1.000     O          -0.528183           
         O4        1.0000    0.85300   0.87100   0.74960   Biso      1.000     O          -0.39718600000000004          
         O5        1.0000    0.97100   0.73980   0.75060   Biso      1.000     O          -0.45886099999999996          
         O6        1.0000    0.31020   0.48790   0.16480   Biso      1.000     O          -0.628171           
         O7        1.0000    0.46370   0.96150   0.74680   Biso      1.000     O          -0.47289899999999996          
         O8        1.0000    0.88830   0.60220   0.24490   Biso      1.000     O          -0.345752           
         O9        1.0000    0.64310   0.33340   0.24990   Biso      1.000     O          -0.552977           
         O10       1.0000    0.18520   0.71200   0.66190   Biso      1.000     O          -0.490285           
         O11       1.0000    0.39510   0.66860   0.66330   Biso      1.000     O          -0.596933           
         O12       1.0000    0.30860   0.48730   0.33280   Biso      1.000     O          -0.569952           
         O13       1.0000    0.10490   0.53600   0.33430   Biso      1.000     O          -0.48167200000000004          
         O14       1.0000    0.35690   0.83340   0.75010   Biso      1.000     O          -0.552977           
         O15       1.0000    0.53630   0.46150   0.25320   Biso      1.000     O          -0.47289899999999996          
         O16       1.0000    0.11170   0.10220   0.75510   Biso      1.000     O          -0.34575100000000003          
         O17       1.0000    0.14700   0.37100   0.25040   Biso      1.000     O          -0.39718600000000004          
         O18       1.0000    0.60490   0.16860   0.33670   Biso      1.000     O          -0.596933           
         O19       1.0000    0.69140   0.98730   0.66720   Biso      1.000     O          -0.569952           
         O20       1.0000    0.89510   0.03600   0.66570   Biso      1.000     O          -0.48167200000000004          
         O21       1.0000    0.81690   0.21070   0.16300   Biso      1.000     O          -0.493629           
         O22       1.0000    0.60590   0.16330   0.16430   Biso      1.000     O          -0.534041           
         O23       1.0000    0.68980   0.98790   0.83520   Biso      1.000     O          -0.628171           
         O24       1.0000    0.89650   0.03160   0.83790   Biso      1.000     O          -0.528181           
         O25       1.0000    0.02900   0.23980   0.24940   Biso      1.000     O          -0.45886000000000005          
         O26       1.0000    0.81480   0.21200   0.33810   Biso      1.000     O          -0.490285           
         Zn1       1.0000    0.96915   0.98504   0.75029   Biso      1.000     Zn          0.9336399999999999  
         Zn2       1.0000    0.15505   0.78010   0.74861   Biso      1.000     Zn          0.9249790000000001  
         Zn3       1.0000    0.46994   0.71062   0.74971   Biso      1.000     Zn          0.9364520000000001  
         Zn4       1.0000    0.53006   0.21062   0.25029   Biso      1.000     Zn          0.936451  
         Zn5       1.0000    0.03085   0.48504   0.24971   Biso      1.000     Zn          0.9336409999999999  
         Zn6       1.0000    0.84495   0.28010   0.25139   Biso      1.000     Zn          0.9249790000000001  
         Zn7       1.0000    0.34557   0.41599   0.24855   Biso      1.000     Zn          0.94026   
         Zn8       1.0000    0.65443   0.91599   0.75145   Biso      1.000     Zn          0.940261 