
##########################################################################
#               Crystallographic Information Format file
#               Produced by PyCifRW module
#
#  This is a CIF file.  CIF has been adopted by the International
#  Union of Crystallography as the standard for data archiving and
#  transmission.
#
#  For information on this file format, follow the CIF links at
#  http://www.iucr.org
##########################################################################

data_image0

_cell_length_a                          8.869
_cell_length_b                          12.0831
_cell_length_c                          19.6129
_cell_angle_alpha                       85.2402
_cell_angle_beta                        76.9326
_cell_angle_gamma                       68.4698
_symmetry_space_group_name_H-M          'P 1'
_symmetry_int_tables_number             1
loop_
  _symmetry_equiv_pos_as_xyz
         'x, y, z' 
loop_
  _atom_site_label
  _atom_site_occupancy
  _atom_site_fract_x
  _atom_site_fract_y
  _atom_site_fract_z
  _atom_site_thermal_displace_type
  _atom_site_B_iso_or_equiv
  _atom_site_type_symbol
  _atom_site_charge
         C1        1.0000    0.10389   0.54202   0.31700   Biso      1.000     C          -0.077086           
         C2        1.0000    0.12759   0.45076   0.36466   Biso      1.000     C          -0.086252           
         C3        1.0000    0.29375   0.40910   0.22640   Biso      1.000     C          -0.035445           
         C4        1.0000    0.18430   0.52026   0.24774   Biso      1.000     C          -0.11241  
         C5        1.0000    0.25047   0.53524   0.94562   Biso      1.000     C          0.585061  
         C6        1.0000    0.32273   0.31854   0.27560   Biso      1.000     C          -0.132248           
         C7        1.0000    0.24281   0.21782   0.03156   Biso      1.000     C          0.649128  
         C8        1.0000    0.23828   0.33936   0.34468   Biso      1.000     C          -0.028477           
         C9        1.0000    0.06591   0.10292   0.01546   Biso      1.000     C          -0.0875   
         C10       1.0000    0.25940   0.23878   0.39682   Biso      1.000     C          0.645185  
         C11       1.0000    0.37120   0.38562   0.15158   Biso      1.000     C          0.605442  
         C12       1.0000    0.96291   0.45798   0.68300   Biso      1.000     C          -0.077849           
         C13       1.0000    0.18429   0.89708   0.98454   Biso      1.000     C          -0.087624           
         C14       1.0000    0.94301   0.54924   0.63534   Biso      1.000     C          -0.086557           
         C15       1.0000    0.92925   0.59090   0.77360   Biso      1.000     C          -0.037138           
         C16       1.0000    0.95230   0.47974   0.75226   Biso      1.000     C          -0.110629           
         C17       1.0000    0.73133   0.46476   0.05438   Biso      1.000     C          0.588011  
         C18       1.0000    0.22424   0.10478   0.01594   Biso      1.000     C          -0.044583           
         C19       1.0000    0.91687   0.68146   0.72440   Biso      1.000     C          -0.129416           
         C20       1.0000    0.77015   0.90910   0.27360   Biso      1.000     C          -0.037096           
         C21       1.0000    0.57902   0.39522   0.51594   Biso      1.000     C          -0.046447           
         C22       1.0000    0.84833   0.81854   0.22440   Biso      1.000     C          -0.130526           
         C23       1.0000    0.52437   0.71782   0.46844   Biso      1.000     C          0.648044  
         C24       1.0000    0.83296   0.83936   0.15532   Biso      1.000     C          -0.028302           
         C25       1.0000    0.90622   0.73878   0.10318   Biso      1.000     C          0.646344  
         C26       1.0000    0.49018   0.60478   0.48406   Biso      1.000     C          -0.044277           
         C27       1.0000    0.77278   0.88562   0.34842   Biso      1.000     C          0.603586  
         C28       1.0000    0.89591   0.95798   0.81700   Biso      1.000     C          -0.077925           
         C29       1.0000    0.00682   0.11438   0.65158   Biso      1.000     C          0.602679  
         C30       1.0000    0.41883   0.39708   0.51546   Biso      1.000     C          -0.088933           
         C31       1.0000    0.95285   0.09090   0.72640   Biso      1.000     C          -0.036196           
         C32       1.0000    0.95456   0.97974   0.74774   Biso      1.000     C          -0.11036  
         C33       1.0000    0.03571   0.96476   0.44562   Biso      1.000     C          0.585847  
         C34       1.0000    0.89127   0.18146   0.77560   Biso      1.000     C          -0.13173  
         C35       1.0000    0.71063   0.28218   0.53156   Biso      1.000     C          0.650172  
         C36       1.0000    0.82764   0.16064   0.84468   Biso      1.000     C          -0.029152           
         C37       1.0000    0.74818   0.26122   0.89682   Biso      1.000     C          0.646098  
         C38       1.0000    0.82835   0.04924   0.86466   Biso      1.000     C          -0.084004           
         C39       1.0000    0.49219   0.78218   0.96844   Biso      1.000     C          0.651227  
         C40       1.0000    0.92232   0.66064   0.65532   Biso      1.000     C          -0.029133           
         C41       1.0000    0.89500   0.76122   0.60318   Biso      1.000     C          0.645523  
         C42       1.0000    0.61470   0.50000   0.50000   Biso      1.000     C          -0.117666           
         C43       1.0000    0.29590   0.50000   0.50000   Biso      1.000     C          -0.08794  
         C44       1.0000    0.36470   0.00000   0.00000   Biso      1.000     C          -0.118351           
         C45       1.0000    0.04590   0.00000   0.00000   Biso      1.000     C          -0.088779           
         C46       1.0000    0.67089   0.04202   0.18300   Biso      1.000     C          -0.076508           
         C47       1.0000    0.33137   0.60292   0.48454   Biso      1.000     C          -0.088623           
         C48       1.0000    0.74225   0.95076   0.13534   Biso      1.000     C          -0.087202           
         C49       1.0000    0.44609   0.03524   0.55438   Biso      1.000     C          0.587289  
         C50       1.0000    0.68204   0.02026   0.25226   Biso      1.000     C          -0.111453           
         C51       1.0000    0.34496   0.89522   0.98406   Biso      1.000     C          -0.047295           
         C52       1.0000    0.90840   0.61438   0.84842   Biso      1.000     C          0.605114  
         H1        1.0000    0.62900   0.08180   0.28480   Biso      1.000     H          0.116822  
         H2        1.0000    0.71950   0.50000   0.50000   Biso      1.000     H          0.130456  
         H3        1.0000    0.19100   0.50000   0.50000   Biso      1.000     H          0.113892  
         H4        1.0000    0.46950   0.00000   0.00000   Biso      1.000     H          0.130693  
         H5        1.0000    0.94100   0.00000   0.00000   Biso      1.000     H          0.113988  
         H6        1.0000    0.61500   0.11860   0.16860   Biso      1.000     H          0.116074  
         H7        1.0000    0.90470   0.75680   0.73800   Biso      1.000     H          0.120236  
         H8        1.0000    0.73980   0.41120   0.09140   Biso      1.000     H          0.025857  
         H9        1.0000    0.96080   0.41820   0.78480   Biso      1.000     H          0.117254  
         H10       1.0000    0.94360   0.53540   0.58940   Biso      1.000     H          0.122663  
         H11       1.0000    0.17130   0.82780   0.97420   Biso      1.000     H          0.113477  
         H12       1.0000    0.98360   0.38140   0.66860   Biso      1.000     H          0.115874  
         H13       1.0000    0.39950   0.24320   0.26200   Biso      1.000     H          0.121372  
         H14       1.0000    0.24240   0.58880   0.90860   Biso      1.000     H          0.026817  
         H15       1.0000    0.16380   0.58180   0.21520   Biso      1.000     H          0.11746   
         H16       1.0000    0.06840   0.46460   0.41060   Biso      1.000     H          0.122351  
         H17       1.0000    0.97330   0.17220   0.02580   Biso      1.000     H          0.112869  
         H18       1.0000    0.24910   0.67220   0.47420   Biso      1.000     H          0.113721  
         H19       1.0000    0.89270   0.25680   0.76200   Biso      1.000     H          0.121071  
         H20       1.0000    0.08120   0.91120   0.40860   Biso      1.000     H          0.026148  
         H21       1.0000    0.99560   0.91820   0.71520   Biso      1.000     H          0.11696   
         H22       1.0000    0.78300   0.03540   0.91060   Biso      1.000     H          0.121512  
         H23       1.0000    0.39550   0.32780   0.52580   Biso      1.000     H          0.113377  
         H24       1.0000    0.90220   0.88140   0.83140   Biso      1.000     H          0.115382  
         H25       1.0000    0.91150   0.74320   0.23800   Biso      1.000     H          0.120638  
         H26       1.0000    0.40100   0.08880   0.59140   Biso      1.000     H          0.02689   
         H27       1.0000    0.72900   0.96460   0.08940   Biso      1.000     H          0.122591  
         H28       1.0000    0.03360   0.61860   0.33140   Biso      1.000     H          0.116214  
         Mg1       1.0000    0.60808   0.52860   0.91222   Biso      1.000     Mg          1.418237  
         Mg2       1.0000    0.76835   0.84346   0.47538   Biso      1.000     Mg          1.345459  
         Mg3       1.0000    0.38668   0.97140   0.41222   Biso      1.000     Mg          1.418236  
         Mg4       1.0000    0.08719   0.15654   0.52462   Biso      1.000     Mg          1.345438  
         Mg5       1.0000    0.77030   0.02860   0.58778   Biso      1.000     Mg          1.417814  
         Mg6       1.0000    0.49373   0.34346   0.02462   Biso      1.000     Mg          1.345174  
         Mg7       1.0000    0.04890   0.47140   0.08778   Biso      1.000     Mg          1.417677  
         Mg8       1.0000    0.86181   0.65654   0.97538   Biso      1.000     Mg          1.345715  
         O1        1.0000    0.69223   0.23726   0.95848   Biso      1.000     O          -0.632351           
         O2        1.0000    0.97503   0.06114   0.60600   Biso      1.000     O          -0.725923           
         O3        1.0000    0.08236   0.18688   0.63140   Biso      1.000     O          -0.596134           
         O4        1.0000    0.11691   0.02790   0.45188   Biso      1.000     O          -0.635535           
         O5        1.0000    0.73638   0.36384   0.87360   Biso      1.000     O          -0.695868           
         O6        1.0000    0.66381   0.19642   0.55376   Biso      1.000     O          -0.702219           
         O7        1.0000    0.64217   0.93886   0.39400   Biso      1.000     O          -0.726049           
         O8        1.0000    0.34731   0.03514   0.51644   Biso      1.000     O          -0.636113           
         O9        1.0000    0.88797   0.76274   0.04152   Biso      1.000     O          -0.632433           
         O10       1.0000    0.89889   0.96486   0.48356   Biso      1.000     O          -0.634193           
         O11       1.0000    0.90064   0.81312   0.36860   Biso      1.000     O          -0.596457           
         O12       1.0000    0.59669   0.97210   0.54812   Biso      1.000     O          -0.636122           
         O13       1.0000    0.97382   0.63616   0.12640   Biso      1.000     O          -0.695811           
         O14       1.0000    0.86002   0.27924   0.52132   Biso      1.000     O          -0.655941           
         O15       1.0000    0.38926   0.22076   0.02132   Biso      1.000     O          -0.655698           
         O16       1.0000    0.39481   0.47210   0.95188   Biso      1.000     O          -0.634758           
         O17       1.0000    0.35022   0.13616   0.37360   Biso      1.000     O          -0.695657           
         O18       1.0000    0.41399   0.80358   0.44624   Biso      1.000     O          -0.701306           
         O19       1.0000    0.51924   0.31312   0.13140   Biso      1.000     O          -0.597419           
         O20       1.0000    0.28617   0.43886   0.10600   Biso      1.000     O          -0.727219           
         O21       1.0000    0.17949   0.26274   0.45848   Biso      1.000     O          -0.631515           
         O22       1.0000    0.11375   0.53514   0.98356   Biso      1.000     O          -0.63488  
         O23       1.0000    0.63134   0.77924   0.97868   Biso      1.000     O          -0.657449           
         O24       1.0000    0.46757   0.69642   0.94624   Biso      1.000     O          -0.701652           
         O25       1.0000    0.85998   0.86384   0.62640   Biso      1.000     O          -0.695627           
         O26       1.0000    0.81879   0.52790   0.04812   Biso      1.000     O          -0.63629  
         O27       1.0000    0.96376   0.68688   0.86860   Biso      1.000     O          -0.597247           
         O28       1.0000    0.83103   0.56114   0.89400   Biso      1.000     O          -0.727346           
         O29       1.0000    0.90071   0.73726   0.54152   Biso      1.000     O          -0.631867           
         O30       1.0000    0.63245   0.46486   0.01644   Biso      1.000     O          -0.635135           
         O31       1.0000    0.11023   0.30358   0.05376   Biso      1.000     O          -0.702004           
         O32       1.0000    0.66058   0.72076   0.47868   Biso      1.000     O          -0.65583 