
##########################################################################
#               Crystallographic Information Format file
#               Produced by PyCifRW module
#
#  This is a CIF file.  CIF has been adopted by the International
#  Union of Crystallography as the standard for data archiving and
#  transmission.
#
#  For information on this file format, follow the CIF links at
#  http://www.iucr.org
##########################################################################

data_image0

_cell_length_a                          16.2663
_cell_length_b                          16.5397
_cell_length_c                          16.5397
_cell_angle_alpha                       76.007
_cell_angle_beta                        60.5453
_cell_angle_gamma                       60.5453
_symmetry_space_group_name_H-M          'P 1'
_symmetry_int_tables_number             1
loop_
  _symmetry_equiv_pos_as_xyz
         'x, y, z' 
loop_
  _atom_site_label
  _atom_site_occupancy
  _atom_site_fract_x
  _atom_site_fract_y
  _atom_site_fract_z
  _atom_site_thermal_displace_type
  _atom_site_B_iso_or_equiv
  _atom_site_type_symbol
  _atom_site_charge
         C1        1.0000    0.90370   0.13100   0.66900   Biso      1.000     C          -0.034209           
         C2        1.0000    0.58060   0.04660   0.56840   Biso      1.000     C          0.637109  
         C3        1.0000    0.40150   0.03180   0.79420   Biso      1.000     C          0.644679  
         C4        1.0000    0.49510   0.04940   0.75460   Biso      1.000     C          0.008369  
         C5        1.0000    0.56290   0.05900   0.66300   Biso      1.000     C          0.000474  
         C6        1.0000    0.60080   0.08680   0.75980   Biso      1.000     C          0.22306   
         C7        1.0000    0.56090   0.32230   0.55170   Biso      1.000     C          0.638332  
         C8        1.0000    0.42070   0.48630   0.72450   Biso      1.000     C          0.663956  
         C9        1.0000    0.51390   0.39580   0.70160   Biso      1.000     C          0.002772  
         C10       1.0000    0.57270   0.33100   0.63100   Biso      1.000     C          -0.034214           
         C11       1.0000    0.64670   0.28430   0.72150   Biso      1.000     C          0.204006  
         C12       1.0000    0.37280   0.93160   0.04660   Biso      1.000     C          0.637114  
         C13       1.0000    0.15250   0.21570   0.77850   Biso      1.000     C          0.204003  
         C14       1.0000    0.56670   0.70580   0.03180   Biso      1.000     C          0.644682  
         C15       1.0000    0.37810   0.83700   0.05900   Biso      1.000     C          0.000477  
         C16       1.0000    0.31240   0.74020   0.08680   Biso      1.000     C          0.223061  
         C17       1.0000    0.11680   0.94830   0.32230   Biso      1.000     C          0.638327  
         C18       1.0000    0.09300   0.77550   0.48630   Biso      1.000     C          0.663954  
         C19       1.0000    0.09030   0.79840   0.39580   Biso      1.000     C          0.002771  
         C20       1.0000    0.09630   0.86900   0.33100   Biso      1.000     C          -0.034209           
         C21       1.0000    0.06900   0.77850   0.28430   Biso      1.000     C          0.204003  
         C22       1.0000    0.85100   0.56840   0.45340   Biso      1.000     C          0.63711   
         C23       1.0000    0.80430   0.79420   0.46820   Biso      1.000     C          0.64468   
         C24       1.0000    0.75030   0.75460   0.45060   Biso      1.000     C          0.008362  
         C25       1.0000    0.77410   0.66300   0.44100   Biso      1.000     C          0.000474  
         C26       1.0000    0.45550   0.74540   0.04940   Biso      1.000     C          0.008361  
         C27       1.0000    0.63940   0.75980   0.41320   Biso      1.000     C          0.223083  
         C28       1.0000    0.11130   0.10420   0.79840   Biso      1.000     C          0.002772  
         C29       1.0000    0.93490   0.17770   0.94830   Biso      1.000     C          0.638333  
         C30       1.0000    0.62720   0.06840   0.95340   Biso      1.000     C          0.637114  
         C31       1.0000    0.43330   0.29420   0.96820   Biso      1.000     C          0.644682  
         C32       1.0000    0.54450   0.25460   0.95060   Biso      1.000     C          0.008361  
         C33       1.0000    0.62190   0.16300   0.94100   Biso      1.000     C          0.000477  
         C34       1.0000    0.68760   0.25980   0.91320   Biso      1.000     C          0.223061  
         C35       1.0000    0.88320   0.05170   0.67770   Biso      1.000     C          0.638327  
         C36       1.0000    0.90700   0.22450   0.51370   Biso      1.000     C          0.663954  
         C37       1.0000    0.90970   0.20160   0.60420   Biso      1.000     C          0.00277   
         C38       1.0000    0.93100   0.22150   0.71570   Biso      1.000     C          0.204003  
         C39       1.0000    0.14900   0.43160   0.54660   Biso      1.000     C          0.63711   
         C40       1.0000    0.19570   0.20580   0.53180   Biso      1.000     C          0.64468   
         C41       1.0000    0.13150   0.01370   0.77550   Biso      1.000     C          0.663963  
         C42       1.0000    0.24970   0.24540   0.54940   Biso      1.000     C          0.008362  
         C43       1.0000    0.36060   0.24020   0.58680   Biso      1.000     C          0.223083  
         C44       1.0000    0.11260   0.44830   0.82230   Biso      1.000     C          0.638325  
         C45       1.0000    0.14520   0.27550   0.98630   Biso      1.000     C          0.66396   
         C46       1.0000    0.21550   0.29840   0.89580   Biso      1.000     C          0.002773  
         C47       1.0000    0.20370   0.36900   0.83100   Biso      1.000     C          -0.034211           
         C48       1.0000    0.36820   0.27850   0.78430   Biso      1.000     C          0.204005  
         C49       1.0000    0.69560   0.45340   0.93160   Biso      1.000     C          0.637108  
         C50       1.0000    0.72750   0.46820   0.70580   Biso      1.000     C          0.644684  
         C51       1.0000    0.79910   0.45060   0.74540   Biso      1.000     C          0.008367  
         C52       1.0000    0.78490   0.44100   0.83700   Biso      1.000     C          0.000473  
         C53       1.0000    0.94740   0.41320   0.74020   Biso      1.000     C          0.223079  
         C54       1.0000    0.22590   0.33700   0.55900   Biso      1.000     C          0.000474  
         C55       1.0000    0.88740   0.55170   0.17770   Biso      1.000     C          0.638325  
         C56       1.0000    0.03470   0.16900   0.86900   Biso      1.000     C          -0.03422  
         C57       1.0000    0.78450   0.70160   0.10420   Biso      1.000     C          0.002774  
         C58       1.0000    0.85480   0.72450   0.01370   Biso      1.000     C          0.663959  
         C59       1.0000    0.35330   0.71570   0.27850   Biso      1.000     C          0.204006  
         C60       1.0000    0.42730   0.66900   0.36900   Biso      1.000     C          -0.034214           
         C61       1.0000    0.48610   0.60420   0.29840   Biso      1.000     C          0.002772  
         C62       1.0000    0.57930   0.51370   0.27550   Biso      1.000     C          0.663956  
         C63       1.0000    0.43910   0.67770   0.44830   Biso      1.000     C          0.638332  
         C64       1.0000    0.39920   0.91320   0.24020   Biso      1.000     C          0.22306   
         C65       1.0000    0.43710   0.94100   0.33700   Biso      1.000     C          0.000474  
         C66       1.0000    0.59850   0.96820   0.20580   Biso      1.000     C          0.644679  
         C67       1.0000    0.41940   0.95340   0.43160   Biso      1.000     C          0.637109  
         C68       1.0000    0.84750   0.78430   0.22150   Biso      1.000     C          0.204003  
         C69       1.0000    0.50490   0.95060   0.24540   Biso      1.000     C          0.008369  
         C70       1.0000    0.88870   0.89580   0.20160   Biso      1.000     C          0.002772  
         C71       1.0000    0.79630   0.63100   0.16900   Biso      1.000     C          -0.034211           
         C72       1.0000    0.63180   0.72150   0.21570   Biso      1.000     C          0.204005  
         C73       1.0000    0.96530   0.83100   0.13100   Biso      1.000     C          -0.03422  
         C74       1.0000    0.27250   0.53180   0.29420   Biso      1.000     C          0.644684  
         C75       1.0000    0.20090   0.54940   0.25460   Biso      1.000     C          0.008367  
         C76       1.0000    0.30440   0.54660   0.06840   Biso      1.000     C          0.637108  
         C77       1.0000    0.05260   0.58680   0.25980   Biso      1.000     C          0.223079  
         C78       1.0000    0.06510   0.82230   0.05170   Biso      1.000     C          0.638333  
         C79       1.0000    0.86850   0.98630   0.22450   Biso      1.000     C          0.663963  
         C80       1.0000    0.21510   0.55900   0.16300   Biso      1.000     C          0.000473  
         H1        1.0000    0.05820   0.75250   0.24850   Biso      1.000     H          0.079566  
         H2        1.0000    0.30670   0.75150   0.25250   Biso      1.000     H          0.079568  
         H3        1.0000    0.36540   0.89920   0.21760   Biso      1.000     H          0.083932  
         H4        1.0000    0.81070   0.74850   0.24750   Biso      1.000     H          0.079567  
         H5        1.0000    0.98220   0.60080   0.28240   Biso      1.000     H          0.083928  
         H6        1.0000    0.58300   0.78240   0.39920   Biso      1.000     H          0.083926  
         H7        1.0000    0.26460   0.71760   0.10080   Biso      1.000     H          0.083931  
         H8        1.0000    0.55920   0.74750   0.25150   Biso      1.000     H          0.079568  
         H9        1.0000    0.63460   0.10080   0.78240   Biso      1.000     H          0.083932  
         H10       1.0000    0.69330   0.24850   0.74750   Biso      1.000     H          0.079568  
         H11       1.0000    0.94180   0.24750   0.75150   Biso      1.000     H          0.079566  
         H12       1.0000    0.41700   0.21760   0.60080   Biso      1.000     H          0.083926  
         H13       1.0000    0.44080   0.25250   0.74850   Biso      1.000     H          0.079568  
         H14       1.0000    0.73540   0.28240   0.89920   Biso      1.000     H          0.083931  
         H15       1.0000    0.01780   0.39920   0.71760   Biso      1.000     H          0.083928  
         H16       1.0000    0.18930   0.25150   0.75250   Biso      1.000     H          0.079567  
         N1        1.0000    0.08240   0.85660   0.26020   Biso      1.000     N          -0.456528           
         N2        1.0000    0.66650   0.81470   0.43230   Biso      1.000     N          -0.451496           
         N3        1.0000    0.70160   0.66840   0.41640   Biso      1.000     N          -0.482572           
         N4        1.0000    0.43880   0.63390   0.24110   Biso      1.000     N          -0.438178           
         N5        1.0000    0.67990   0.75890   0.13390   Biso      1.000     N          -0.438186           
         N6        1.0000    0.09880   0.56770   0.31470   Biso      1.000     N          -0.451494           
         N7        1.0000    0.11800   0.58360   0.16840   Biso      1.000     N          -0.482575           
         N8        1.0000    0.93900   0.76020   0.14340   Biso      1.000     N          -0.456517           
         N9        1.0000    0.81380   0.86610   0.25890   Biso      1.000     N          -0.438177           
         N10       1.0000    0.48120   0.93230   0.18530   Biso      1.000     N          -0.451488           
         N11       1.0000    0.37000   0.91640   0.33160   Biso      1.000     N          -0.482567           
         N12       1.0000    0.34260   0.73980   0.35660   Biso      1.000     N          -0.456524           
         N13       1.0000    0.07270   0.74110   0.36610   Biso      1.000     N          -0.438178           
         N14       1.0000    0.69920   0.64340   0.23980   Biso      1.000     N          -0.456524           
         N15       1.0000    0.51880   0.06770   0.81470   Biso      1.000     N          -0.451488           
         N16       1.0000    0.65740   0.26020   0.64340   Biso      1.000     N          -0.456524           
         N17       1.0000    0.28640   0.83160   0.08360   Biso      1.000     N          -0.482565           
         N18       1.0000    0.58650   0.31470   0.93230   Biso      1.000     N          -0.451486           
         N19       1.0000    0.71360   0.16840   0.91640   Biso      1.000     N          -0.482565           
         N20       1.0000    0.91760   0.14340   0.73980   Biso      1.000     N          -0.456528           
         N21       1.0000    0.92730   0.25890   0.63390   Biso      1.000     N          -0.438178           
         N22       1.0000    0.33350   0.18530   0.56770   Biso      1.000     N          -0.451496           
         N23       1.0000    0.56120   0.36610   0.75890   Biso      1.000     N          -0.438178           
         N24       1.0000    0.29840   0.33160   0.58360   Biso      1.000     N          -0.482572           
         N25       1.0000    0.32010   0.24110   0.86610   Biso      1.000     N          -0.438186           
         N26       1.0000    0.90120   0.43230   0.68530   Biso      1.000     N          -0.451494           
         N27       1.0000    0.88200   0.41640   0.83160   Biso      1.000     N          -0.482575           
         N28       1.0000    0.06100   0.23980   0.85660   Biso      1.000     N          -0.456517           
         N29       1.0000    0.18620   0.13390   0.74110   Biso      1.000     N          -0.438177           
         N30       1.0000    0.63000   0.08360   0.66840   Biso      1.000     N          -0.482567           
         N31       1.0000    0.30080   0.35660   0.76020   Biso      1.000     N          -0.456524           
         N32       1.0000    0.41350   0.68530   0.06770   Biso      1.000     N          -0.451486           
         O1        1.0000    0.45350   0.94390   0.01590   Biso      1.000     O          -0.727486           
         O2        1.0000    0.64890   0.06960   0.50100   Biso      1.000     O          -0.687229           
         O3        1.0000    0.11580   0.82090   0.51830   Biso      1.000     O          -0.704856           
         O4        1.0000    0.15350   0.95420   0.37300   Biso      1.000     O          -0.689036           
         O5        1.0000    0.09930   0.00840   0.26260   Biso      1.000     O          -0.630003           
         O6        1.0000    0.60980   0.61830   0.04270   Biso      1.000     O          -0.630604           
         O7        1.0000    0.61530   0.75530   0.00410   Biso      1.000     O          -0.672374           
         O8        1.0000    0.06330   0.98170   0.82090   Biso      1.000     O          -0.704855           
         O9        1.0000    0.21830   0.96880   0.70960   Biso      1.000     O          -0.633834           
         O10       1.0000    0.28150   0.99900   0.06960   Biso      1.000     O          -0.687232           
         O11       1.0000    0.36590   0.51830   0.67910   Biso      1.000     O          -0.704851           
         O12       1.0000    0.47350   0.37300   0.54580   Biso      1.000     O          -0.689027           
         O13       1.0000    0.63810   0.26260   0.49160   Biso      1.000     O          -0.630011           
         O14       1.0000    0.34750   0.04270   0.88170   Biso      1.000     O          -0.630601           
         O15       1.0000    0.38060   0.00410   0.74470   Biso      1.000     O          -0.672375           
         O16       1.0000    0.53060   0.01590   0.55610   Biso      1.000     O          -0.727484           
         O17       1.0000    0.39670   0.53120   0.79040   Biso      1.000     O          -0.633824           
         O18       1.0000    0.89230   0.12700   0.95420   Biso      1.000     O          -0.689029           
         O19       1.0000    0.38470   0.24470   0.99590   Biso      1.000     O          -0.672374           
         O20       1.0000    0.77190   0.45730   0.61830   Biso      1.000     O          -0.630602           
         O21       1.0000    0.07210   0.70960   0.53120   Biso      1.000     O          -0.633822           
         O22       1.0000    0.71950   0.43040   0.99900   Biso      1.000     O          -0.687226           
         O23       1.0000    0.18710   0.20960   0.03120   Biso      1.000     O          -0.633825           
         O24       1.0000    0.04500   0.32090   0.01830   Biso      1.000     O          -0.70486  
         O25       1.0000    0.01930   0.45420   0.87300   Biso      1.000     O          -0.689026           
         O26       1.0000    0.12970   0.50840   0.76260   Biso      1.000     O          -0.630003           
         O27       1.0000    0.22920   0.11830   0.54270   Biso      1.000     O          -0.630609           
         O28       1.0000    0.12530   0.25530   0.50410   Biso      1.000     O          -0.672368           
         O29       1.0000    0.60260   0.48410   0.94390   Biso      1.000     O          -0.727484           
         O30       1.0000    0.08670   0.44390   0.51590   Biso      1.000     O          -0.727485           
         O31       1.0000    0.14990   0.49900   0.56960   Biso      1.000     O          -0.687224           
         O32       1.0000    0.92790   0.29040   0.46880   Biso      1.000     O          -0.633822           
         O33       1.0000    0.88420   0.17910   0.48170   Biso      1.000     O          -0.704856           
         O34       1.0000    0.84650   0.04580   0.62700   Biso      1.000     O          -0.689036           
         O35       1.0000    0.90070   0.99160   0.73740   Biso      1.000     O          -0.630003           
         O36       1.0000    0.39020   0.38170   0.95730   Biso      1.000     O          -0.630605           
         O37       1.0000    0.62940   0.49590   0.75530   Biso      1.000     O          -0.672378           
         O38       1.0000    0.89230   0.23740   0.00840   Biso      1.000     O          -0.630004           
         O39       1.0000    0.85010   0.50100   0.43040   Biso      1.000     O          -0.687224           
         O40       1.0000    0.71850   0.00100   0.93040   Biso      1.000     O          -0.687232           
         O41       1.0000    0.87470   0.74470   0.49590   Biso      1.000     O          -0.672368           
         O42       1.0000    0.54650   0.05610   0.98410   Biso      1.000     O          -0.727486           
         O43       1.0000    0.60330   0.46880   0.20960   Biso      1.000     O          -0.633824           
         O44       1.0000    0.63410   0.48170   0.32090   Biso      1.000     O          -0.704851           
         O45       1.0000    0.91330   0.55610   0.48410   Biso      1.000     O          -0.727485           
         O46       1.0000    0.36190   0.73740   0.50840   Biso      1.000     O          -0.630011           
         O47       1.0000    0.65250   0.95730   0.11830   Biso      1.000     O          -0.630601           
         O48       1.0000    0.61940   0.99590   0.25530   Biso      1.000     O          -0.672375           
         O49       1.0000    0.46940   0.98410   0.44390   Biso      1.000     O          -0.727484           
         O50       1.0000    0.35110   0.93040   0.49900   Biso      1.000     O          -0.687229           
         O51       1.0000    0.78170   0.03120   0.29040   Biso      1.000     O          -0.633833           
         O52       1.0000    0.93670   0.01830   0.17910   Biso      1.000     O          -0.704855           
         O53       1.0000    0.52650   0.62700   0.45420   Biso      1.000     O          -0.689027           
         O54       1.0000    0.10770   0.76260   0.99160   Biso      1.000     O          -0.630004           
         O55       1.0000    0.10770   0.87300   0.04580   Biso      1.000     O          -0.689029           
         O56       1.0000    0.77080   0.88170   0.45730   Biso      1.000     O          -0.630609           
         O57       1.0000    0.98070   0.54580   0.12700   Biso      1.000     O          -0.689026           
         O58       1.0000    0.95500   0.67910   0.98170   Biso      1.000     O          -0.70486  
         O59       1.0000    0.87030   0.49160   0.23740   Biso      1.000     O          -0.630003           
         O60       1.0000    0.28050   0.56960   0.00100   Biso      1.000     O          -0.687226           
         O61       1.0000    0.39740   0.51590   0.05610   Biso      1.000     O          -0.727484           
         O62       1.0000    0.37060   0.50410   0.24470   Biso      1.000     O          -0.672378           
         O63       1.0000    0.22810   0.54270   0.38170   Biso      1.000     O          -0.630602           
         O64       1.0000    0.81290   0.79040   0.96880   Biso      1.000     O          -0.633825           
         Sm1       1.0000    0.11665   0.96942   0.12152   Biso      1.000     Sm          2.030674  
         Sm2       1.0000    0.51265   0.52266   0.11400   Biso      1.000     Sm          2.021446  
         Sm3       1.0000    0.08607   0.62152   0.03058   Biso      1.000     Sm          2.030665  
         Sm4       1.0000    0.64931   0.97734   0.38600   Biso      1.000     Sm          2.021457  
         Sm5       1.0000    0.70759   0.53058   0.37848   Biso      1.000     Sm          2.030667  
         Sm6       1.0000    0.62665   0.88600   0.02266   Biso      1.000     Sm          2.021454  
         Sm7       1.0000    0.03531   0.61400   0.47734   Biso      1.000     Sm          2.021449  
         Sm8       1.0000    0.29241   0.46942   0.62152   Biso      1.000     Sm          2.030668  
         Sm9       1.0000    0.48735   0.47734   0.88600   Biso      1.000     Sm          2.021446  
         Sm10      1.0000    0.91393   0.37848   0.96942   Biso      1.000     Sm          2.030665  
         Sm11      1.0000    0.35069   0.02266   0.61400   Biso      1.000     Sm          2.021457  
         Sm12      1.0000    0.37335   0.11400   0.97734   Biso      1.000     Sm          2.021455  
         Sm13      1.0000    0.88335   0.03058   0.87848   Biso      1.000     Sm          2.030675  
         Sm14      1.0000    0.96469   0.38600   0.52266   Biso      1.000     Sm          2.021448  
         Sm15      1.0000    0.76183   0.12152   0.53058   Biso      1.000     Sm          2.030679  
         Sm16      1.0000    0.23817   0.87848   0.46942   Biso      1.000     Sm          2.030679 