
##########################################################################
#               Crystallographic Information Format file
#               Produced by PyCifRW module
#
#  This is a CIF file.  CIF has been adopted by the International
#  Union of Crystallography as the standard for data archiving and
#  transmission.
#
#  For information on this file format, follow the CIF links at
#  http://www.iucr.org
##########################################################################

data_image0

_cell_length_a                          16.139
_cell_length_b                          16.483
_cell_length_c                          16.483
_cell_angle_alpha                       76.1328
_cell_angle_beta                        60.688
_cell_angle_gamma                       60.6881
_symmetry_space_group_name_H-M          'P 1'
_symmetry_int_tables_number             1
loop_
  _symmetry_equiv_pos_as_xyz
         'x, y, z' 
loop_
  _atom_site_label
  _atom_site_occupancy
  _atom_site_fract_x
  _atom_site_fract_y
  _atom_site_fract_z
  _atom_site_thermal_displace_type
  _atom_site_B_iso_or_equiv
  _atom_site_type_symbol
  _atom_site_charge
         C1        1.0000    0.71700   0.29760   0.89420   Biso      1.000     C          0.028882  
         C2        1.0000    0.81210   0.74110   0.08690   Biso      1.000     C          0.240178  
         C3        1.0000    0.61800   0.94740   0.32160   Biso      1.000     C          0.581384  
         C4        1.0000    0.59450   0.77590   0.48450   Biso      1.000     C          0.578658  
         C5        1.0000    0.59670   0.86800   0.32920   Biso      1.000     C          0.029872  
         C6        1.0000    0.59120   0.79760   0.39420   Biso      1.000     C          0.032673  
         C7        1.0000    0.57070   0.77690   0.28330   Biso      1.000     C          0.222029  
         C8        1.0000    0.10030   0.96840   0.20580   Biso      1.000     C          0.577207  
         C9        1.0000    0.87820   0.83690   0.05750   Biso      1.000     C          0.040222  
         C10       1.0000    0.91860   0.95330   0.42990   Biso      1.000     C          0.559793  
         C11       1.0000    0.93570   0.94250   0.33690   Biso      1.000     C          0.035128  
         C12       1.0000    0.89900   0.91310   0.24110   Biso      1.000     C          0.241568  
         C13       1.0000    0.93960   0.67840   0.44740   Biso      1.000     C          0.582696  
         C14       1.0000    0.07900   0.51550   0.27590   Biso      1.000     C          0.581286  
         C15       1.0000    0.92590   0.67080   0.36800   Biso      1.000     C          0.027551  
         C16       1.0000    0.98540   0.60580   0.29760   Biso      1.000     C          0.030494  
         C17       1.0000    0.85400   0.71670   0.27690   Biso      1.000     C          0.222691  
         C18       1.0000    0.00560   0.95060   0.24680   Biso      1.000     C          0.040867  
         C19       1.0000    0.77450   0.53160   0.29420   Biso      1.000     C          0.575712  
         C20       1.0000    0.95620   0.74680   0.04940   Biso      1.000     C          0.038795  
         C21       1.0000    0.06870   0.70580   0.03160   Biso      1.000     C          0.57988   
         C22       1.0000    0.44680   0.41310   0.74110   Biso      1.000     C          0.237138  
         C23       1.0000    0.43460   0.17840   0.94740   Biso      1.000     C          0.579     
         C24       1.0000    0.62960   0.01550   0.77590   Biso      1.000     C          0.581705  
         C25       1.0000    0.53530   0.17080   0.86800   Biso      1.000     C          0.030913  
         C26       1.0000    0.61120   0.10580   0.79760   Biso      1.000     C          0.02921   
         C27       1.0000    0.65240   0.21670   0.77690   Biso      1.000     C          0.222486  
         C28       1.0000    0.30610   0.79420   0.46840   Biso      1.000     C          0.577624  
         C29       1.0000    0.87190   0.92990   0.04670   Biso      1.000     C          0.56254   
         C30       1.0000    0.34850   0.57010   0.45330   Biso      1.000     C          0.564528  
         C31       1.0000    0.27260   0.66310   0.44250   Biso      1.000     C          0.034939  
         C32       1.0000    0.14010   0.75890   0.41310   Biso      1.000     C          0.239124  
         C33       1.0000    0.38700   0.55260   0.17840   Biso      1.000     C          0.579264  
         C34       1.0000    0.35490   0.72410   0.01550   Biso      1.000     C          0.580669  
         C35       1.0000    0.29390   0.63200   0.17080   Biso      1.000     C          0.030303  
         C36       1.0000    0.28300   0.70240   0.10580   Biso      1.000     C          0.029461  
         C37       1.0000    0.13090   0.72310   0.21670   Biso      1.000     C          0.223762  
         C38       1.0000    0.25240   0.75320   0.45060   Biso      1.000     C          0.037129  
         C39       1.0000    0.80180   0.54670   0.07010   Biso      1.000     C          0.564678  
         C40       1.0000    0.70300   0.54940   0.25320   Biso      1.000     C          0.039117  
         C41       1.0000    0.71510   0.55750   0.16310   Biso      1.000     C          0.034642  
         C42       1.0000    0.40550   0.22410   0.51550   Biso      1.000     C          0.581199  
         C43       1.0000    0.38200   0.05260   0.67840   Biso      1.000     C          0.580755  
         C44       1.0000    0.18790   0.25890   0.91310   Biso      1.000     C          0.237161  
         C45       1.0000    0.12180   0.16310   0.94250   Biso      1.000     C          0.037301  
         C46       1.0000    0.04380   0.25320   0.95060   Biso      1.000     C          0.035033  
         C47       1.0000    0.12810   0.07010   0.95330   Biso      1.000     C          0.562507  
         C48       1.0000    0.93130   0.29420   0.96840   Biso      1.000     C          0.579225  
         C49       1.0000    0.40330   0.13200   0.67080   Biso      1.000     C          0.03326   
         C50       1.0000    0.86910   0.27690   0.78330   Biso      1.000     C          0.223353  
         C51       1.0000    0.64510   0.27590   0.98450   Biso      1.000     C          0.580766  
         C52       1.0000    0.61300   0.44740   0.82160   Biso      1.000     C          0.579237  
         C53       1.0000    0.85990   0.24110   0.58690   Biso      1.000     C          0.238526  
         C54       1.0000    0.72740   0.33690   0.55750   Biso      1.000     C          0.033468  
         C55       1.0000    0.74760   0.24680   0.54940   Biso      1.000     C          0.036363  
         C56       1.0000    0.65150   0.42990   0.54670   Biso      1.000     C          0.564539  
         C57       1.0000    0.69390   0.20580   0.53160   Biso      1.000     C          0.57692   
         C58       1.0000    0.70610   0.36800   0.82920   Biso      1.000     C          0.030651  
         C59       1.0000    0.40880   0.20240   0.60580   Biso      1.000     C          0.038494  
         C60       1.0000    0.42930   0.22310   0.71670   Biso      1.000     C          0.224858  
         C61       1.0000    0.89970   0.03160   0.79420   Biso      1.000     C          0.577009  
         C62       1.0000    0.55320   0.58690   0.25890   Biso      1.000     C          0.240118  
         C63       1.0000    0.56540   0.82160   0.05260   Biso      1.000     C          0.578744  
         C64       1.0000    0.37040   0.98450   0.22410   Biso      1.000     C          0.581505  
         C65       1.0000    0.46470   0.82920   0.13200   Biso      1.000     C          0.030791  
         C66       1.0000    0.38880   0.89420   0.20240   Biso      1.000     C          0.030178  
         C67       1.0000    0.34760   0.78330   0.22310   Biso      1.000     C          0.222798  
         C68       1.0000    0.19820   0.45330   0.92990   Biso      1.000     C          0.564919  
         C69       1.0000    0.22550   0.46840   0.70580   Biso      1.000     C          0.574705  
         C70       1.0000    0.14600   0.28330   0.72310   Biso      1.000     C          0.226034  
         C71       1.0000    0.01460   0.39420   0.70240   Biso      1.000     C          0.036682  
         C72       1.0000    0.07410   0.32920   0.63200   Biso      1.000     C          0.031465  
         C73       1.0000    0.92100   0.48450   0.72410   Biso      1.000     C          0.583858  
         C74       1.0000    0.06040   0.32160   0.55260   Biso      1.000     C          0.581653  
         C75       1.0000    0.10100   0.08690   0.75890   Biso      1.000     C          0.242493  
         C76       1.0000    0.06430   0.05750   0.66310   Biso      1.000     C          0.035569  
         C77       1.0000    0.99440   0.04940   0.75320   Biso      1.000     C          0.041781  
         C78       1.0000    0.08140   0.04670   0.57010   Biso      1.000     C          0.559709  
         C79       1.0000    0.28490   0.44250   0.83690   Biso      1.000     C          0.031507  
         C80       1.0000    0.29700   0.45060   0.74680   Biso      1.000     C          0.035953  
         Eu1       1.0000    0.58500   0.62099   0.03199   Biso      1.000     Eu          1.321215  
         Eu2       1.0000    0.41500   0.37901   0.96801   Biso      1.000     Eu          1.321158  
         Eu3       1.0000    0.14972   0.97624   0.38660   Biso      1.000     Eu          1.271099  
         Eu4       1.0000    0.73797   0.87901   0.46801   Biso      1.000     Eu          1.320401  
         Eu5       1.0000    0.01256   0.52376   0.11340   Biso      1.000     Eu          1.272184  
         Eu6       1.0000    0.61698   0.96801   0.12100   Biso      1.000     Eu          1.32081   
         Eu7       1.0000    0.53632   0.61340   0.47624   Biso      1.000     Eu          1.271974  
         Eu8       1.0000    0.20599   0.53199   0.37900   Biso      1.000     Eu          1.32011   
         Eu9       1.0000    0.12596   0.88660   0.02376   Biso      1.000     Eu          1.273547  
         Eu10      1.0000    0.85028   0.02376   0.61340   Biso      1.000     Eu          1.271316  
         Eu11      1.0000    0.26203   0.12099   0.53199   Biso      1.000     Eu          1.320341  
         Eu12      1.0000    0.98744   0.47624   0.88660   Biso      1.000     Eu          1.270059  
         Eu13      1.0000    0.38302   0.03199   0.87900   Biso      1.000     Eu          1.320556  
         Eu14      1.0000    0.46368   0.38660   0.52376   Biso      1.000     Eu          1.26971   
         Eu15      1.0000    0.79401   0.46801   0.62100   Biso      1.000     Eu          1.320245  
         Eu16      1.0000    0.87404   0.11340   0.97624   Biso      1.000     Eu          1.27361   
         H1        1.0000    0.91600   0.21800   0.60200   Biso      1.000     H          0.077039  
         H2        1.0000    0.94190   0.25050   0.74690   Biso      1.000     H          0.069231  
         H3        1.0000    0.48200   0.60200   0.28200   Biso      1.000     H          0.077706  
         H4        1.0000    0.31120   0.74690   0.24950   Biso      1.000     H          0.070017  
         H5        1.0000    0.23600   0.28200   0.89800   Biso      1.000     H          0.077244  
         H6        1.0000    0.43930   0.24950   0.75310   Biso      1.000     H          0.070006  
         H7        1.0000    0.13400   0.10200   0.78200   Biso      1.000     H          0.076941  
         H8        1.0000    0.51800   0.39800   0.71800   Biso      1.000     H          0.077738  
         H9        1.0000    0.68880   0.25310   0.75050   Biso      1.000     H          0.069957  
         H10       1.0000    0.19240   0.24690   0.74950   Biso      1.000     H          0.069392  
         H11       1.0000    0.05810   0.74950   0.25310   Biso      1.000     H          0.069217  
         H12       1.0000    0.76400   0.71800   0.10200   Biso      1.000     H          0.077167  
         H13       1.0000    0.56070   0.75050   0.24690   Biso      1.000     H          0.070191  
         H14       1.0000    0.86600   0.89800   0.21800   Biso      1.000     H          0.076933  
         H15       1.0000    0.80760   0.75310   0.25050   Biso      1.000     H          0.06949   
         H16       1.0000    0.08400   0.78200   0.39800   Biso      1.000     H          0.077006  
         N1        1.0000    0.38240   0.41810   0.83190   Biso      1.000     N          -0.396631           
         N2        1.0000    0.01850   0.06820   0.81380   Biso      1.000     N          -0.371269           
         N3        1.0000    0.40050   0.43180   0.68620   Biso      1.000     N          -0.369877           
         N4        1.0000    0.15810   0.25870   0.64510   Biso      1.000     N          -0.394557           
         N5        1.0000    0.06290   0.36360   0.76060   Biso      1.000     N          -0.360395           
         N6        1.0000    0.13240   0.08190   0.66810   Biso      1.000     N          -0.39708  
         N7        1.0000    0.41680   0.14510   0.74130   Biso      1.000     N          -0.396226           
         N8        1.0000    0.83230   0.18620   0.56820   Biso      1.000     N          -0.372463           
         N9        1.0000    0.21430   0.16810   0.91810   Biso      1.000     N          -0.396836           
         N10       1.0000    0.08670   0.31380   0.93180   Biso      1.000     N          -0.367734           
         N11       1.0000    0.80320   0.35490   0.75870   Biso      1.000     N          -0.388591           
         N12       1.0000    0.82350   0.23940   0.86360   Biso      1.000     N          -0.357397           
         N13       1.0000    0.80050   0.33190   0.58190   Biso      1.000     N          -0.397996           
         N14       1.0000    0.68710   0.13640   0.73940   Biso      1.000     N          -0.358785           
         N15       1.0000    0.42650   0.26060   0.63640   Biso      1.000     N          -0.360419           
         N16       1.0000    0.56190   0.24130   0.85490   Biso      1.000     N          -0.394253           
         N17       1.0000    0.16770   0.81380   0.43180   Biso      1.000     N          -0.372688           
         N18       1.0000    0.19950   0.66810   0.41810   Biso      1.000     N          -0.399017           
         N19       1.0000    0.31290   0.86360   0.26060   Biso      1.000     N          -0.358728           
         N20       1.0000    0.61760   0.58190   0.16810   Biso      1.000     N          -0.398177           
         N21       1.0000    0.59950   0.56820   0.31380   Biso      1.000     N          -0.372796           
         N22       1.0000    0.84190   0.74130   0.35490   Biso      1.000     N          -0.391891           
         N23       1.0000    0.93710   0.63640   0.23940   Biso      1.000     N          -0.357011           
         N24       1.0000    0.86760   0.91810   0.33190   Biso      1.000     N          -0.397356           
         N25       1.0000    0.43810   0.75870   0.14510   Biso      1.000     N          -0.393868           
         N26       1.0000    0.58320   0.85490   0.25870   Biso      1.000     N          -0.391435           
         N27       1.0000    0.57350   0.73940   0.36360   Biso      1.000     N          -0.356899           
         N28       1.0000    0.78570   0.83190   0.08190   Biso      1.000     N          -0.398875           
         N29       1.0000    0.91330   0.68620   0.06820   Biso      1.000     N          -0.371159           
         N30       1.0000    0.19680   0.64510   0.24130   Biso      1.000     N          -0.390612           
         N31       1.0000    0.17650   0.76060   0.13640   Biso      1.000     N          -0.357389           
         N32       1.0000    0.98150   0.93180   0.18620   Biso      1.000     N          -0.37069  
         O1        1.0000    0.84640   0.04280   0.88120   Biso      1.000     O          -0.504949           
         O2        1.0000    0.86700   0.51760   0.67940   Biso      1.000     O          -0.527346           
         O3        1.0000    0.89561   0.52889   0.79289   Biso      1.000     O          -0.487958           
         O4        1.0000    0.97620   0.37300   0.54580   Biso      1.000     O          -0.528021           
         O5        1.0000    0.13790   0.25950   0.49330   Biso      1.000     O          -0.505213           
         O6        1.0000    0.10155   0.48553   0.94477   Biso      1.000     O          -0.5619   
         O7        1.0000    0.27040   0.45720   0.61880   Biso      1.000     O          -0.489361           
         O8        1.0000    0.12960   0.49460   0.75560   Biso      1.000     O          -0.487789           
         O9        1.0000    0.56400   0.98240   0.82060   Biso      1.000     O          -0.511604           
         O10       1.0000    0.71739   0.97111   0.70711   Biso      1.000     O          -0.468175           
         O11       1.0000    0.39500   0.12700   0.95420   Biso      1.000     O          -0.525275           
         O12       1.0000    0.87980   0.00540   0.74440   Biso      1.000     O          -0.490626           
         O13       1.0000    0.21999   0.43227   0.99835   Biso      1.000     O          -0.544457           
         O14       1.0000    0.15061   0.06773   0.50165   Biso      1.000     O          -0.539741           
         O15       1.0000    0.21834   0.00165   0.93227   Biso      1.000     O          -0.54388  
         O16       1.0000    0.39740   0.99330   0.74050   Biso      1.000     O          -0.507003           
         O17       1.0000    0.34920   0.04580   0.62700   Biso      1.000     O          -0.528476           
         O18       1.0000    0.42450   0.29289   0.47111   Biso      1.000     O          -0.486874           
         O19       1.0000    0.38460   0.17940   0.48240   Biso      1.000     O          -0.527072           
         O20       1.0000    0.88920   0.38120   0.95720   Biso      1.000     O          -0.492073           
         O21       1.0000    0.88520   0.24440   0.99460   Biso      1.000     O          -0.495336           
         O22       1.0000    0.39070   0.24050   0.00670   Biso      1.000     O          -0.507444           
         O23       1.0000    0.04632   0.05523   0.98553   Biso      1.000     O          -0.566367           
         O24       1.0000    0.63120   0.50670   0.75950   Biso      1.000     O          -0.507145           
         O25       1.0000    0.52200   0.45420   0.87300   Biso      1.000     O          -0.525844           
         O26       1.0000    0.68850   0.20711   0.02889   Biso      1.000     O          -0.471123           
         O27       1.0000    0.54640   0.32060   0.01760   Biso      1.000     O          -0.509308           
         O28       1.0000    0.72760   0.11880   0.54280   Biso      1.000     O          -0.498952           
         O29       1.0000    0.62420   0.25560   0.50540   Biso      1.000     O          -0.488108           
         O30       1.0000    0.03185   0.01447   0.55523   Biso      1.000     O          -0.561804           
         O31       1.0000    0.41292   0.55523   0.48553   Biso      1.000     O          -0.563724           
         O32       1.0000    0.60930   0.75950   0.99330   Biso      1.000     O          -0.506597           
         O33       1.0000    0.37580   0.74440   0.49460   Biso      1.000     O          -0.49303  
         O34       1.0000    0.65226   0.49835   0.56773   Biso      1.000     O          -0.545904           
         O35       1.0000    0.60500   0.87300   0.04580   Biso      1.000     O          -0.525423           
         O36       1.0000    0.28261   0.02889   0.29289   Biso      1.000     O          -0.46785  
         O37       1.0000    0.43600   0.01760   0.17940   Biso      1.000     O          -0.511766           
         O38       1.0000    0.72960   0.54280   0.38120   Biso      1.000     O          -0.494814           
         O39       1.0000    0.87040   0.50540   0.24440   Biso      1.000     O          -0.492538           
         O40       1.0000    0.78001   0.56773   0.00165   Biso      1.000     O          -0.545218           
         O41       1.0000    0.89845   0.51447   0.05523   Biso      1.000     O          -0.565837           
         O42       1.0000    0.86210   0.74050   0.50670   Biso      1.000     O          -0.508066           
         O43       1.0000    0.02380   0.62700   0.45420   Biso      1.000     O          -0.524077           
         O44       1.0000    0.10439   0.47111   0.20711   Biso      1.000     O          -0.474591           
         O45       1.0000    0.13300   0.48240   0.32060   Biso      1.000     O          -0.508766           
         O46       1.0000    0.15360   0.95720   0.11880   Biso      1.000     O          -0.504335           
         O47       1.0000    0.12020   0.99460   0.25560   Biso      1.000     O          -0.490796           
         O48       1.0000    0.84939   0.93227   0.49835   Biso      1.000     O          -0.540322           
         O49       1.0000    0.96815   0.98553   0.44477   Biso      1.000     O          -0.562112           
         O50       1.0000    0.60260   0.00670   0.25950   Biso      1.000     O          -0.507446           
         O51       1.0000    0.65080   0.95420   0.37300   Biso      1.000     O          -0.524232           
         O52       1.0000    0.57550   0.70711   0.52889   Biso      1.000     O          -0.474374           
         O53       1.0000    0.61540   0.82060   0.51760   Biso      1.000     O          -0.508518           
         O54       1.0000    0.11080   0.61880   0.04280   Biso      1.000     O          -0.498318           
         O55       1.0000    0.11480   0.75560   0.00540   Biso      1.000     O          -0.498058           
         O56       1.0000    0.78166   0.99835   0.06773   Biso      1.000     O          -0.54579  
         O57       1.0000    0.95368   0.94477   0.01447   Biso      1.000     O          -0.568279           
         O58       1.0000    0.36880   0.49330   0.24050   Biso      1.000     O          -0.508058           
         O59       1.0000    0.47800   0.54580   0.12700   Biso      1.000     O          -0.525846           
         O60       1.0000    0.31150   0.79289   0.97111   Biso      1.000     O          -0.471182           
         O61       1.0000    0.45360   0.67940   0.98240   Biso      1.000     O          -0.508757           
         O62       1.0000    0.27240   0.88120   0.45720   Biso      1.000     O          -0.500518           
         O63       1.0000    0.34774   0.50165   0.43227   Biso      1.000     O          -0.54634  
         O64       1.0000    0.58708   0.44477   0.51447   Biso      1.000     O          -0.560697 