
##########################################################################
#               Crystallographic Information Format file
#               Produced by PyCifRW module
#
#  This is a CIF file.  CIF has been adopted by the International
#  Union of Crystallography as the standard for data archiving and
#  transmission.
#
#  For information on this file format, follow the CIF links at
#  http://www.iucr.org
##########################################################################

data_image0

_cell_length_a                          10.152
_cell_length_b                          17.44
_cell_length_c                          17.715
_cell_angle_alpha                       90
_cell_angle_beta                        90
_cell_angle_gamma                       90
_symmetry_space_group_name_H-M          'P 1'
_symmetry_int_tables_number             1
loop_
  _symmetry_equiv_pos_as_xyz
         'x, y, z' 
loop_
  _atom_site_label
  _atom_site_occupancy
  _atom_site_fract_x
  _atom_site_fract_y
  _atom_site_fract_z
  _atom_site_thermal_displace_type
  _atom_site_B_iso_or_equiv
  _atom_site_type_symbol
  _atom_site_charge
         C1        1.0000    0.94160   0.08450   0.95880   Biso      1.000     C          -0.126194           
         C2        1.0000    0.95270   0.75190   0.02110   Biso      1.000     C          -0.125369           
         C3        1.0000    0.89910   0.75520   0.94790   Biso      1.000     C          -0.09916699999999999          
         C4        1.0000    0.90890   0.82720   0.91770   Biso      1.000     C          -0.122767           
         C5        1.0000    0.59440   0.98360   0.62310   Biso      1.000     C          0.679099  
         C6        1.0000    0.38930   0.02100   0.35040   Biso      1.000     C          0.674596  
         C7        1.0000    0.45540   0.03170   0.42320   Biso      1.000     C          -0.11636500000000001          
         C8        1.0000    0.51650   0.09520   0.44880   Biso      1.000     C          -0.11425899999999999          
         C9        1.0000    0.56980   0.08570   0.52060   Biso      1.000     C          -0.10628499999999999          
         C10       1.0000    0.54920   0.01610   0.54980   Biso      1.000     C          -0.10871900000000001          
         C11       1.0000    0.43740   0.32110   0.34990   Biso      1.000     C          0.6944359999999999  
         C12       1.0000    0.99860   0.82130   0.04560   Biso      1.000     C          -0.13705599999999998          
         C13       1.0000    0.65550   0.35750   0.62010   Biso      1.000     C          0.676243  
         C14       1.0000    0.44160   0.41550   0.45880   Biso      1.000     C          -0.126194           
         C15       1.0000    0.47770   0.34810   0.42550   Biso      1.000     C          -0.129511           
         C16       1.0000    0.36440   0.64390   0.34330   Biso      1.000     C          0.679751  
         C17       1.0000    0.55570   0.66160   0.62090   Biso      1.000     C          0.707518  
         C18       1.0000    0.49860   0.67870   0.54560   Biso      1.000     C          -0.137061           
         C19       1.0000    0.45270   0.74810   0.52110   Biso      1.000     C          -0.125364           
         C20       1.0000    0.39910   0.74480   0.44790   Biso      1.000     C          -0.09916699999999999          
         C21       1.0000    0.40890   0.67280   0.41770   Biso      1.000     C          -0.122767           
         C22       1.0000    0.09440   0.51640   0.12310   Biso      1.000     C          0.6791020000000001  
         C23       1.0000    0.88930   0.47900   0.85040   Biso      1.000     C          0.674596  
         C24       1.0000    0.57810   0.36540   0.55000   Biso      1.000     C          -0.11511700000000001          
         C25       1.0000    0.95540   0.46830   0.92320   Biso      1.000     C          -0.11636500000000001          
         C26       1.0000    0.05570   0.83840   0.12090   Biso      1.000     C          0.7075170000000001  
         C27       1.0000    0.97770   0.15190   0.92550   Biso      1.000     C          -0.129511           
         C28       1.0000    0.06260   0.82110   0.34990   Biso      1.000     C          0.6944359999999999  
         C29       1.0000    0.84450   0.85750   0.62010   Biso      1.000     C          0.676243  
         C30       1.0000    0.92190   0.86540   0.55000   Biso      1.000     C          -0.11511700000000001          
         C31       1.0000    0.00230   0.92490   0.53060   Biso      1.000     C          -0.11788  
         C32       1.0000    0.05840   0.91550   0.45880   Biso      1.000     C          -0.126194           
         C33       1.0000    0.02230   0.84810   0.42550   Biso      1.000     C          -0.129511           
         C34       1.0000    0.13560   0.14390   0.34330   Biso      1.000     C          0.679751  
         C35       1.0000    0.94430   0.16160   0.62090   Biso      1.000     C          0.707518  
         C36       1.0000    0.00140   0.17870   0.54560   Biso      1.000     C          -0.137061           
         C37       1.0000    0.04730   0.24810   0.52110   Biso      1.000     C          -0.125364           
         C38       1.0000    0.86440   0.85610   0.84330   Biso      1.000     C          0.679751  
         C39       1.0000    0.10090   0.24480   0.44790   Biso      1.000     C          -0.09916699999999999          
         C40       1.0000    0.40560   0.01640   0.12310   Biso      1.000     C          0.679099  
         C41       1.0000    0.61070   0.97900   0.85040   Biso      1.000     C          0.674596  
         C42       1.0000    0.54460   0.96830   0.92320   Biso      1.000     C          -0.11636500000000001          
         C43       1.0000    0.48350   0.90480   0.94880   Biso      1.000     C          -0.11425899999999999          
         C44       1.0000    0.43020   0.91430   0.02060   Biso      1.000     C          -0.10628499999999999          
         C45       1.0000    0.45080   0.98390   0.04980   Biso      1.000     C          -0.10871900000000001          
         C46       1.0000    0.93740   0.17890   0.84990   Biso      1.000     C          0.6944359999999999  
         C47       1.0000    0.15550   0.14250   0.12010   Biso      1.000     C          0.676243  
         C48       1.0000    0.07810   0.13460   0.05000   Biso      1.000     C          -0.11511700000000001          
         C49       1.0000    0.99770   0.07510   0.03060   Biso      1.000     C          -0.11788  
         C50       1.0000    0.09110   0.17280   0.41770   Biso      1.000     C          -0.122767           
         C51       1.0000    0.01650   0.40480   0.94880   Biso      1.000     C          -0.11426199999999999          
         C52       1.0000    0.49770   0.42490   0.53060   Biso      1.000     C          -0.11788  
         C53       1.0000    0.04920   0.48390   0.04980   Biso      1.000     C          -0.108747           
         C54       1.0000    0.06980   0.41430   0.02060   Biso      1.000     C          -0.10625699999999999          
         C55       1.0000    0.95080   0.51610   0.54980   Biso      1.000     C          -0.108747           
         C56       1.0000    0.93020   0.58570   0.52060   Biso      1.000     C          -0.106255           
         C57       1.0000    0.98350   0.59520   0.44880   Biso      1.000     C          -0.114284           
         C58       1.0000    0.04460   0.53170   0.42320   Biso      1.000     C          -0.116342           
         C59       1.0000    0.90560   0.48360   0.62310   Biso      1.000     C          0.6791020000000001  
         C60       1.0000    0.59110   0.32720   0.91770   Biso      1.000     C          -0.122776           
         C61       1.0000    0.60090   0.25520   0.94790   Biso      1.000     C          -0.09915800000000001          
         C62       1.0000    0.54730   0.25190   0.02110   Biso      1.000     C          -0.12537  
         C63       1.0000    0.11070   0.52100   0.35040   Biso      1.000     C          0.674593  
         C64       1.0000    0.44430   0.33840   0.12090   Biso      1.000     C          0.7075170000000001  
         C65       1.0000    0.63560   0.35610   0.84330   Biso      1.000     C          0.679752  
         C66       1.0000    0.52230   0.65190   0.92550   Biso      1.000     C          -0.12951700000000002          
         C67       1.0000    0.55840   0.58450   0.95880   Biso      1.000     C          -0.126187           
         C68       1.0000    0.50230   0.57510   0.03060   Biso      1.000     C          -0.11789000000000001          
         C69       1.0000    0.42190   0.63460   0.05000   Biso      1.000     C          -0.11510699999999999          
         C70       1.0000    0.34450   0.64250   0.12010   Biso      1.000     C          0.676242  
         C71       1.0000    0.50140   0.32130   0.04560   Biso      1.000     C          -0.13705599999999998          
         C72       1.0000    0.56260   0.67890   0.84990   Biso      1.000     C          0.6944359999999999  
         H1        1.0000    0.38600   0.45120   0.43630   Biso      1.000     H          0.123399  
         H2        1.0000    0.45640   0.79270   0.54980   Biso      1.000     H          0.120104  
         H3        1.0000    0.36170   0.78650   0.42310   Biso      1.000     H          0.141432  
         H4        1.0000    0.02250   0.35940   0.92140   Biso      1.000     H          0.12368900000000001           
         H5        1.0000    0.63830   0.21350   0.92310   Biso      1.000     H          0.141431  
         H6        1.0000    0.61400   0.54880   0.93630   Biso      1.000     H          0.12339800000000001           
         H7        1.0000    0.54360   0.20730   0.04980   Biso      1.000     H          0.12010499999999999           
         H8        1.0000    0.97750   0.64060   0.42140   Biso      1.000     H          0.12369000000000001           
         H9        1.0000    0.48190   0.46700   0.56160   Biso      1.000     H          0.125198  
         H10       1.0000    0.88470   0.62420   0.54590   Biso      1.000     H          0.134966  
         H11       1.0000    0.51810   0.53300   0.06160   Biso      1.000     H          0.125198  
         H12       1.0000    0.61530   0.12420   0.54590   Biso      1.000     H          0.134968  
         H13       1.0000    0.11530   0.37580   0.04590   Biso      1.000     H          0.134966  
         H14       1.0000    0.86170   0.71350   0.92310   Biso      1.000     H          0.141432  
         H15       1.0000    0.52250   0.14060   0.42140   Biso      1.000     H          0.12368900000000001           
         H16       1.0000    0.01810   0.96700   0.56160   Biso      1.000     H          0.125198  
         H17       1.0000    0.11400   0.95120   0.43630   Biso      1.000     H          0.123399  
         H18       1.0000    0.13830   0.28650   0.42310   Biso      1.000     H          0.141432  
         H19       1.0000    0.47750   0.85940   0.92140   Biso      1.000     H          0.12368900000000001           
         H20       1.0000    0.04360   0.29270   0.54980   Biso      1.000     H          0.120104  
         H21       1.0000    0.98190   0.03300   0.06160   Biso      1.000     H          0.125198  
         H22       1.0000    0.88600   0.04880   0.93630   Biso      1.000     H          0.123399  
         H23       1.0000    0.95640   0.70730   0.04980   Biso      1.000     H          0.120104  
         H24       1.0000    0.38470   0.87580   0.04590   Biso      1.000     H          0.134968  
         O1        1.0000    0.38450   0.36970   0.30630   Biso      1.000     O          -0.706968           
         O2        1.0000    0.56800   0.91400   0.63520   Biso      1.000     O          -0.7022729999999999           
         O3        1.0000    0.65140   0.03000   0.66750   Biso      1.000     O          -0.651035           
         O4        1.0000    0.39290   0.07620   0.30450   Biso      1.000     O          -0.758938           
         O5        1.0000    0.32470   0.96120   0.33790   Biso      1.000     O          -0.620496           
         O6        1.0000    0.45460   0.25210   0.33220   Biso      1.000     O          -0.6768350000000001           
         O7        1.0000    0.55390   0.71410   0.66730   Biso      1.000     O          -0.690045           
         O8        1.0000    0.72270   0.29950   0.63190   Biso      1.000     O          -0.617462           
         O9        1.0000    0.30880   0.69250   0.29970   Biso      1.000     O          -0.6505989999999999           
         O10       1.0000    0.38430   0.57480   0.32940   Biso      1.000     O          -0.7060390000000001           
         O11       1.0000    0.08920   0.90750   0.13460   Biso      1.000     O          -0.6991069999999999           
         O12       1.0000    0.58920   0.59250   0.63460   Biso      1.000     O          -0.6991069999999999           
         O13       1.0000    0.15140   0.47000   0.16750   Biso      1.000     O          -0.651035           
         O14       1.0000    0.65200   0.41440   0.66550   Biso      1.000     O          -0.764898           
         O15       1.0000    0.05390   0.78590   0.16730   Biso      1.000     O          -0.690045           
         O16       1.0000    0.88450   0.13030   0.80630   Biso      1.000     O          -0.706968           
         O17       1.0000    0.80880   0.80750   0.79970   Biso      1.000     O          -0.6505989999999999           
         O18       1.0000    0.43200   0.08600   0.13520   Biso      1.000     O          -0.7022729999999999           
         O19       1.0000    0.06800   0.58600   0.13520   Biso      1.000     O          -0.7022729999999999           
         O20       1.0000    0.34860   0.97000   0.16750   Biso      1.000     O          -0.651035           
         O21       1.0000    0.91080   0.09250   0.63460   Biso      1.000     O          -0.6991069999999999           
         O22       1.0000    0.94610   0.21410   0.66730   Biso      1.000     O          -0.690045           
         O23       1.0000    0.11570   0.07480   0.32940   Biso      1.000     O          -0.7060390000000001           
         O24       1.0000    0.88430   0.92520   0.82940   Biso      1.000     O          -0.7060390000000001           
         O25       1.0000    0.19120   0.19250   0.29970   Biso      1.000     O          -0.6505989999999999           
         O26       1.0000    0.84800   0.91440   0.66550   Biso      1.000     O          -0.764898           
         O27       1.0000    0.60710   0.92380   0.80450   Biso      1.000     O          -0.758938           
         O28       1.0000    0.67530   0.03880   0.83790   Biso      1.000     O          -0.620496           
         O29       1.0000    0.95460   0.24790   0.83220   Biso      1.000     O          -0.6768350000000001           
         O30       1.0000    0.15200   0.08560   0.16550   Biso      1.000     O          -0.764898           
         O31       1.0000    0.22270   0.20050   0.13190   Biso      1.000     O          -0.617462           
         O32       1.0000    0.77730   0.79950   0.63190   Biso      1.000     O          -0.617462           
         O33       1.0000    0.89290   0.42380   0.80450   Biso      1.000     O          -0.758937           
         O34       1.0000    0.11550   0.86970   0.30630   Biso      1.000     O          -0.706968           
         O35       1.0000    0.61550   0.63030   0.80630   Biso      1.000     O          -0.706968           
         O36       1.0000    0.82470   0.53880   0.83790   Biso      1.000     O          -0.620496           
         O37       1.0000    0.04540   0.75210   0.33220   Biso      1.000     O          -0.676834           
         O38       1.0000    0.17530   0.46120   0.33790   Biso      1.000     O          -0.620496           
         O39       1.0000    0.10710   0.57620   0.30450   Biso      1.000     O          -0.758937           
         O40       1.0000    0.84860   0.53000   0.66750   Biso      1.000     O          -0.651035           
         O41       1.0000    0.41080   0.40750   0.13460   Biso      1.000     O          -0.6991069999999999           
         O42       1.0000    0.93200   0.41400   0.63520   Biso      1.000     O          -0.7022729999999999           
         O43       1.0000    0.61570   0.42520   0.82940   Biso      1.000     O          -0.7060390000000001           
         O44       1.0000    0.69120   0.30750   0.79970   Biso      1.000     O          -0.6505989999999999           
         O45       1.0000    0.27730   0.70050   0.13190   Biso      1.000     O          -0.617463           
         O46       1.0000    0.34800   0.58560   0.16550   Biso      1.000     O          -0.764898           
         O47       1.0000    0.54540   0.74790   0.83220   Biso      1.000     O          -0.6768350000000001           
         O48       1.0000    0.44610   0.28590   0.16730   Biso      1.000     O          -0.690045           
         S1        1.0000    0.96180   0.54115   0.98802   Biso      1.000     S          0.15773299999999998           
         S2        1.0000    0.03820   0.45885   0.48802   Biso      1.000     S          0.15773099999999998           
         S3        1.0000    0.51830   0.38999   0.97846   Biso      1.000     S          0.18715299999999999           
         S4        1.0000    0.41830   0.70328   0.98130   Biso      1.000     S          0.184202  
         S5        1.0000    0.48170   0.61001   0.47846   Biso      1.000     S          0.18715299999999999           
         S6        1.0000    0.98170   0.88999   0.97846   Biso      1.000     S          0.18715199999999999           
         S7        1.0000    0.46180   0.95885   0.48802   Biso      1.000     S          0.15773   
         S8        1.0000    0.08170   0.20328   0.98130   Biso      1.000     S          0.184202  
         S9        1.0000    0.53820   0.04115   0.98802   Biso      1.000     S          0.15773   
         S10       1.0000    0.01830   0.11001   0.47846   Biso      1.000     S          0.18715299999999999           
         S11       1.0000    0.91830   0.79672   0.48130   Biso      1.000     S          0.184202  
         S12       1.0000    0.58170   0.29672   0.48130   Biso      1.000     S          0.184202  
         Tb1       1.0000    0.61769   0.82110   0.72713   Biso      1.000     Tb          2.122793  
         Tb2       1.0000    0.83876   0.02088   0.74096   Biso      1.000     Tb          2.1310759999999997  
         Tb3       1.0000    0.38231   0.17890   0.22713   Biso      1.000     Tb          2.122793  
         Tb4       1.0000    0.16124   0.97912   0.24096   Biso      1.000     Tb          2.1310759999999997  
         Tb5       1.0000    0.88231   0.32110   0.72713   Biso      1.000     Tb          2.122792  
         Tb6       1.0000    0.66124   0.52088   0.74096   Biso      1.000     Tb          2.1310759999999997  
         Tb7       1.0000    0.11769   0.67890   0.22713   Biso      1.000     Tb          2.122792  
         Tb8       1.0000    0.33876   0.47912   0.24096   Biso      1.000     Tb          2.1310759999999997 