
##########################################################################
#               Crystallographic Information Format file
#               Produced by PyCifRW module
#
#  This is a CIF file.  CIF has been adopted by the International
#  Union of Crystallography as the standard for data archiving and
#  transmission.
#
#  For information on this file format, follow the CIF links at
#  http://www.iucr.org
##########################################################################

data_image0

_cell_length_a                          10.1537
_cell_length_b                          17.4356
_cell_length_c                          17.6594
_cell_angle_alpha                       90
_cell_angle_beta                        90
_cell_angle_gamma                       90
_symmetry_space_group_name_H-M          'P 1'
_symmetry_int_tables_number             1
loop_
  _symmetry_equiv_pos_as_xyz
         'x, y, z' 
loop_
  _atom_site_label
  _atom_site_occupancy
  _atom_site_fract_x
  _atom_site_fract_y
  _atom_site_fract_z
  _atom_site_thermal_displace_type
  _atom_site_B_iso_or_equiv
  _atom_site_type_symbol
  _atom_site_charge
         C1        1.0000    0.15230   0.35810   0.59930   Biso      1.000     C          0.683435  
         C2        1.0000    0.04900   0.01640   0.52970   Biso      1.000     C          -0.115468           
         C3        1.0000    0.89050   0.02290   0.32880   Biso      1.000     C          0.680296  
         C4        1.0000    0.44110   0.16210   0.60020   Biso      1.000     C          0.71613   
         C5        1.0000    0.90480   0.01570   0.10410   Biso      1.000     C          0.685714  
         C6        1.0000    0.50500   0.92500   0.51020   Biso      1.000     C          -0.115307           
         C7        1.0000    0.54330   0.24780   0.50020   Biso      1.000     C          -0.123355           
         C8        1.0000    0.40240   0.75520   0.92660   Biso      1.000     C          -0.101326           
         C9        1.0000    0.34770   0.85810   0.59930   Biso      1.000     C          0.683434  
         C10       1.0000    0.59140   0.17310   0.39710   Biso      1.000     C          -0.11952  
         C11       1.0000    0.50190   0.17860   0.52550   Biso      1.000     C          -0.135472           
         C12       1.0000    0.52420   0.84890   0.40390   Biso      1.000     C          -0.129312           
         C13       1.0000    0.56380   0.91540   0.43880   Biso      1.000     C          -0.129381           
         C14       1.0000    0.42330   0.86620   0.52940   Biso      1.000     C          -0.116795           
         C15       1.0000    0.04590   0.96790   0.90340   Biso      1.000     C          -0.125154           
         C16       1.0000    0.92850   0.91390   0.00060   Biso      1.000     C          -0.107016           
         C17       1.0000    0.63690   0.14360   0.32230   Biso      1.000     C          0.686757  
         C18       1.0000    0.43720   0.17940   0.82750   Biso      1.000     C          0.698803  
         C19       1.0000    0.36310   0.85640   0.82230   Biso      1.000     C          0.686755  
         C20       1.0000    0.54900   0.48360   0.02970   Biso      1.000     C          -0.115468           
         C21       1.0000    0.39050   0.47710   0.82880   Biso      1.000     C          0.680296  
         C22       1.0000    0.55890   0.83790   0.10020   Biso      1.000     C          0.71613   
         C23       1.0000    0.09520   0.98430   0.60410   Biso      1.000     C          0.685716  
         C24       1.0000    0.49500   0.07500   0.01020   Biso      1.000     C          -0.115307           
         C25       1.0000    0.45670   0.75220   0.00020   Biso      1.000     C          -0.123352           
         C26       1.0000    0.01580   0.09670   0.42950   Biso      1.000     C          -0.120496           
         C27       1.0000    0.65230   0.14190   0.09930   Biso      1.000     C          0.683434  
         C28       1.0000    0.40860   0.82690   0.89710   Biso      1.000     C          -0.1195   
         C29       1.0000    0.49810   0.82140   0.02550   Biso      1.000     C          -0.135473           
         C30       1.0000    0.47580   0.15110   0.90390   Biso      1.000     C          -0.129312           
         C31       1.0000    0.43620   0.08460   0.93880   Biso      1.000     C          -0.129381           
         C32       1.0000    0.57670   0.13380   0.02940   Biso      1.000     C          -0.116795           
         C33       1.0000    0.95410   0.03210   0.40340   Biso      1.000     C          -0.125148           
         C34       1.0000    0.07150   0.08610   0.50060   Biso      1.000     C          -0.106989           
         C35       1.0000    0.98420   0.90330   0.92950   Biso      1.000     C          -0.120487           
         C36       1.0000    0.56280   0.82060   0.32750   Biso      1.000     C          0.698803  
         C37       1.0000    0.59760   0.24480   0.42660   Biso      1.000     C          -0.101307           
         C38       1.0000    0.48420   0.59670   0.42950   Biso      1.000     C          -0.120493           
         C39       1.0000    0.13690   0.35640   0.82230   Biso      1.000     C          0.686757  
         C40       1.0000    0.54590   0.53210   0.40340   Biso      1.000     C          -0.125148           
         C41       1.0000    0.92330   0.63380   0.02940   Biso      1.000     C          -0.116804           
         C42       1.0000    0.06380   0.58460   0.93880   Biso      1.000     C          -0.129384           
         C43       1.0000    0.02420   0.65110   0.90390   Biso      1.000     C          -0.12931  
         C44       1.0000    0.06280   0.67940   0.82750   Biso      1.000     C          0.698803  
         C45       1.0000    0.00190   0.32140   0.02550   Biso      1.000     C          -0.135489           
         C46       1.0000    0.42850   0.58610   0.50060   Biso      1.000     C          -0.107015           
         C47       1.0000    0.84770   0.64190   0.09930   Biso      1.000     C          0.683435  
         C48       1.0000    0.04330   0.25220   0.00020   Biso      1.000     C          -0.123339           
         C49       1.0000    0.00500   0.57500   0.01020   Biso      1.000     C          -0.115299           
         C50       1.0000    0.40480   0.48430   0.60410   Biso      1.000     C          0.685714  
         C51       1.0000    0.94110   0.33790   0.10020   Biso      1.000     C          0.716132  
         C52       1.0000    0.09140   0.32690   0.89710   Biso      1.000     C          -0.119519           
         C53       1.0000    0.09760   0.25520   0.92660   Biso      1.000     C          -0.101308           
         C54       1.0000    0.45100   0.51640   0.52970   Biso      1.000     C          -0.115441           
         C55       1.0000    0.60950   0.52290   0.32880   Biso      1.000     C          0.680296  
         C56       1.0000    0.95100   0.98360   0.02970   Biso      1.000     C          -0.115441           
         C57       1.0000    0.10950   0.97710   0.82880   Biso      1.000     C          0.680296  
         C58       1.0000    0.51580   0.40330   0.92950   Biso      1.000     C          -0.120496           
         C59       1.0000    0.86310   0.64360   0.32230   Biso      1.000     C          0.686757  
         C60       1.0000    0.45410   0.46790   0.90340   Biso      1.000     C          -0.125148           
         C61       1.0000    0.07670   0.36620   0.52940   Biso      1.000     C          -0.116804           
         C62       1.0000    0.93620   0.41540   0.43880   Biso      1.000     C          -0.129384           
         C63       1.0000    0.97580   0.34890   0.40390   Biso      1.000     C          -0.12931  
         C64       1.0000    0.99810   0.67860   0.52550   Biso      1.000     C          -0.135489           
         C65       1.0000    0.90860   0.67310   0.39710   Biso      1.000     C          -0.119519           
         C66       1.0000    0.57150   0.41390   0.00060   Biso      1.000     C          -0.106989           
         C67       1.0000    0.95670   0.74780   0.50020   Biso      1.000     C          -0.123339           
         C68       1.0000    0.99500   0.42500   0.51020   Biso      1.000     C          -0.115298           
         C69       1.0000    0.59520   0.51570   0.10410   Biso      1.000     C          0.685716  
         C70       1.0000    0.05890   0.66210   0.60020   Biso      1.000     C          0.716132  
         C71       1.0000    0.90240   0.74480   0.42660   Biso      1.000     C          -0.101308           
         C72       1.0000    0.93720   0.32060   0.32750   Biso      1.000     C          0.698803  
         Dy1       1.0000    0.66104   0.97910   0.22044   Biso      1.000     Dy          2.130404  
         Dy2       1.0000    0.33896   0.02090   0.72044   Biso      1.000     Dy          2.130404  
         Dy3       1.0000    0.88199   0.17886   0.20625   Biso      1.000     Dy          2.119798  
         Dy4       1.0000    0.11801   0.82114   0.70625   Biso      1.000     Dy          2.119797  
         Dy5       1.0000    0.83896   0.47910   0.22044   Biso      1.000     Dy          2.130403  
         Dy6       1.0000    0.61801   0.67886   0.20625   Biso      1.000     Dy          2.119797  
         Dy7       1.0000    0.16104   0.52090   0.72044   Biso      1.000     Dy          2.130403  
         Dy8       1.0000    0.38199   0.32114   0.70625   Biso      1.000     Dy          2.119797  
         H1        1.0000    0.02040   0.53280   0.04120   Biso      1.000     H          0.123935  
         H2        1.0000    0.63310   0.28690   0.40150   Biso      1.000     H          0.141968  
         H3        1.0000    0.98000   0.85750   0.90270   Biso      1.000     H          0.12312   
         H4        1.0000    0.62280   0.95000   0.41760   Biso      1.000     H          0.12572   
         H5        1.0000    0.88030   0.87620   0.02550   Biso      1.000     H          0.13451   
         H6        1.0000    0.53660   0.29270   0.52840   Biso      1.000     H          0.117587  
         H7        1.0000    0.52040   0.96720   0.54120   Biso      1.000     H          0.123936  
         H8        1.0000    0.36690   0.71310   0.90150   Biso      1.000     H          0.141969  
         H9        1.0000    0.02000   0.14250   0.40270   Biso      1.000     H          0.123121  
         H10       1.0000    0.03660   0.20730   0.02840   Biso      1.000     H          0.117586  
         H11       1.0000    0.11970   0.12380   0.52550   Biso      1.000     H          0.134509  
         H12       1.0000    0.37720   0.05000   0.91760   Biso      1.000     H          0.12572   
         H13       1.0000    0.38030   0.62380   0.52550   Biso      1.000     H          0.13451   
         H14       1.0000    0.48000   0.64250   0.40270   Biso      1.000     H          0.123121  
         H15       1.0000    0.13310   0.21310   0.90150   Biso      1.000     H          0.141968  
         H16       1.0000    0.97960   0.46720   0.54120   Biso      1.000     H          0.123935  
         H17       1.0000    0.96340   0.79270   0.52840   Biso      1.000     H          0.117586  
         H18       1.0000    0.12280   0.55000   0.91760   Biso      1.000     H          0.12572   
         H19       1.0000    0.87720   0.45000   0.41760   Biso      1.000     H          0.125721  
         H20       1.0000    0.52000   0.35750   0.90270   Biso      1.000     H          0.123121  
         H21       1.0000    0.86690   0.78690   0.40150   Biso      1.000     H          0.141968  
         H22       1.0000    0.47960   0.03280   0.04120   Biso      1.000     H          0.123936  
         H23       1.0000    0.46340   0.70730   0.02840   Biso      1.000     H          0.117587  
         H24       1.0000    0.61970   0.37620   0.02550   Biso      1.000     H          0.134509  
         O1        1.0000    0.72180   0.19830   0.11070   Biso      1.000     O          -0.615963           
         O2        1.0000    0.08950   0.59300   0.61420   Biso      1.000     O          -0.699522           
         O3        1.0000    0.95370   0.25200   0.31160   Biso      1.000     O          -0.669002           
         O4        1.0000    0.88200   0.36930   0.28540   Biso      1.000     O          -0.706604           
         O5        1.0000    0.39460   0.42360   0.78370   Biso      1.000     O          -0.737776           
         O6        1.0000    0.32500   0.53810   0.81690   Biso      1.000     O          -0.640647           
         O7        1.0000    0.15080   0.41540   0.64530   Biso      1.000     O          -0.778222           
         O8        1.0000    0.38200   0.92470   0.80840   Biso      1.000     O          -0.70104  
         O9        1.0000    0.55760   0.78600   0.14720   Biso      1.000     O          -0.695865           
         O10       1.0000    0.30860   0.80770   0.77840   Biso      1.000     O          -0.656265           
         O11       1.0000    0.06790   0.91430   0.61580   Biso      1.000     O          -0.714322           
         O12       1.0000    0.65250   0.47010   0.14730   Biso      1.000     O          -0.6396   
         O13       1.0000    0.22180   0.30170   0.61070   Biso      1.000     O          -0.615962           
         O14       1.0000    0.84920   0.58460   0.14530   Biso      1.000     O          -0.778222           
         O15       1.0000    0.80860   0.69230   0.27840   Biso      1.000     O          -0.656265           
         O16       1.0000    0.05760   0.71400   0.64720   Biso      1.000     O          -0.695865           
         O17       1.0000    0.88200   0.57530   0.30840   Biso      1.000     O          -0.70104  
         O18       1.0000    0.67500   0.46190   0.31690   Biso      1.000     O          -0.640647           
         O19       1.0000    0.34750   0.52990   0.64730   Biso      1.000     O          -0.6396   
         O20       1.0000    0.60540   0.57640   0.28370   Biso      1.000     O          -0.737776           
         O21       1.0000    0.11800   0.63070   0.78540   Biso      1.000     O          -0.706604           
         O22       1.0000    0.04630   0.74800   0.81160   Biso      1.000     O          -0.669002           
         O23       1.0000    0.91050   0.40700   0.11420   Biso      1.000     O          -0.699522           
         O24       1.0000    0.77820   0.69830   0.11070   Biso      1.000     O          -0.615963           
         O25       1.0000    0.43210   0.41430   0.61580   Biso      1.000     O          -0.714322           
         O26       1.0000    0.58950   0.90700   0.11420   Biso      1.000     O          -0.699522           
         O27       1.0000    0.19140   0.30770   0.77840   Biso      1.000     O          -0.656265           
         O28       1.0000    0.56790   0.58570   0.11580   Biso      1.000     O          -0.714322           
         O29       1.0000    0.45370   0.24800   0.81160   Biso      1.000     O          -0.669002           
         O30       1.0000    0.84750   0.97010   0.14730   Biso      1.000     O          -0.6396   
         O31       1.0000    0.89460   0.07640   0.28370   Biso      1.000     O          -0.737776           
         O32       1.0000    0.94240   0.28600   0.14720   Biso      1.000     O          -0.695865           
         O33       1.0000    0.38200   0.13070   0.78540   Biso      1.000     O          -0.706604           
         O34       1.0000    0.34920   0.91540   0.64530   Biso      1.000     O          -0.778222           
         O35       1.0000    0.10540   0.92360   0.78370   Biso      1.000     O          -0.737776           
         O36       1.0000    0.61800   0.86930   0.28540   Biso      1.000     O          -0.706604           
         O37       1.0000    0.54630   0.75200   0.31160   Biso      1.000     O          -0.669002           
         O38       1.0000    0.41050   0.09300   0.61420   Biso      1.000     O          -0.699522           
         O39       1.0000    0.17500   0.03810   0.81690   Biso      1.000     O          -0.640647           
         O40       1.0000    0.93210   0.08570   0.11580   Biso      1.000     O          -0.714322           
         O41       1.0000    0.15250   0.02990   0.64730   Biso      1.000     O          -0.6396   
         O42       1.0000    0.27820   0.80170   0.61070   Biso      1.000     O          -0.615963           
         O43       1.0000    0.65080   0.08460   0.14530   Biso      1.000     O          -0.778222           
         O44       1.0000    0.11800   0.42470   0.80840   Biso      1.000     O          -0.70104  
         O45       1.0000    0.61800   0.07530   0.30840   Biso      1.000     O          -0.70104  
         O46       1.0000    0.44240   0.21400   0.64720   Biso      1.000     O          -0.695864           
         O47       1.0000    0.69140   0.19230   0.27840   Biso      1.000     O          -0.656265           
         O48       1.0000    0.82500   0.96190   0.31690   Biso      1.000     O          -0.640647           
         S1        1.0000    0.01750   0.39017   0.95747   Biso      1.000     S          0.177223  
         S2        1.0000    0.91880   0.70237   0.96022   Biso      1.000     S          0.176774  
         S3        1.0000    0.53800   0.45948   0.46770   Biso      1.000     S          0.171201  
         S4        1.0000    0.98250   0.60983   0.45747   Biso      1.000     S          0.177223  
         S5        1.0000    0.46200   0.54052   0.96770   Biso      1.000     S          0.171204  
         S6        1.0000    0.48250   0.89017   0.95747   Biso      1.000     S          0.177219  
         S7        1.0000    0.58120   0.20237   0.96022   Biso      1.000     S          0.176773  
         S8        1.0000    0.96200   0.95948   0.46770   Biso      1.000     S          0.171204  
         S9        1.0000    0.51750   0.10983   0.45747   Biso      1.000     S          0.177221  
         S10       1.0000    0.41880   0.79763   0.46022   Biso      1.000     S          0.176773  
         S11       1.0000    0.03800   0.04052   0.96770   Biso      1.000     S          0.171202  
         S12       1.0000    0.08120   0.29763   0.46022   Biso      1.000     S          0.176773 