
##########################################################################
#               Crystallographic Information Format file
#               Produced by PyCifRW module
#
#  This is a CIF file.  CIF has been adopted by the International
#  Union of Crystallography as the standard for data archiving and
#  transmission.
#
#  For information on this file format, follow the CIF links at
#  http://www.iucr.org
##########################################################################

data_image0

_cell_length_a                          6.8483
_cell_length_b                          21.0561
_cell_length_c                          21.0561
_cell_angle_alpha                       61.1597
_cell_angle_beta                        83.7762
_cell_angle_gamma                       96.2238
_symmetry_space_group_name_H-M          'P 1'
_symmetry_int_tables_number             1
loop_
  _symmetry_equiv_pos_as_xyz
         'x, y, z' 
loop_
  _atom_site_label
  _atom_site_occupancy
  _atom_site_fract_x
  _atom_site_fract_y
  _atom_site_fract_z
  _atom_site_thermal_displace_type
  _atom_site_B_iso_or_equiv
  _atom_site_type_symbol
  _atom_site_charge
         C1        1.0000    0.53273   0.54838   0.89309   Biso      1.000     C          -0.232714           
         C2        1.0000    0.29135   0.57898   0.59742   Biso      1.000     C          -0.251905           
         C3        1.0000    0.09889   0.59693   0.58429   Biso      1.000     C          0.272918  
         C4        1.0000    0.98435   0.55853   0.54838   Biso      1.000     C          -0.233635           
         C5        1.0000    0.05258   0.50976   0.52583   Biso      1.000     C          0.102215  
         C6        1.0000    0.23431   0.48778   0.54600   Biso      1.000     C          -0.153003           
         C7        1.0000    0.34739   0.51734   0.58030   Biso      1.000     C          -0.071525           
         C8        1.0000    0.05561   0.63220   0.75851   Biso      1.000     C          0.643952  
         C9        1.0000    0.88877   0.59742   0.82360   Biso      1.000     C          -0.24983  
         C10       1.0000    0.68318   0.58429   0.81878   Biso      1.000     C          0.272618  
         C11       1.0000    0.11123   0.40258   0.17640   Biso      1.000     C          -0.24983  
         C12       1.0000    0.57841   0.52583   0.96441   Biso      1.000     C          0.100821  
         C13       1.0000    0.78031   0.54600   0.96622   Biso      1.000     C          -0.150333           
         C14       1.0000    0.42341   0.60929   0.63220   Biso      1.000     C          0.642512  
         C15       1.0000    0.92769   0.58030   0.90236   Biso      1.000     C          -0.074016           
         C16       1.0000    0.28763   0.17640   0.42102   Biso      1.000     C          -0.250556           
         C17       1.0000    0.49804   0.18122   0.40307   Biso      1.000     C          0.272846  
         C18       1.0000    0.57418   0.10691   0.44147   Biso      1.000     C          -0.23347  
         C19       1.0000    0.45718   0.03559   0.49024   Biso      1.000     C          0.101035  
         C20       1.0000    0.25347   0.03378   0.51222   Biso      1.000     C          -0.151666           
         C21       1.0000    0.16995   0.09764   0.48266   Biso      1.000     C          -0.071844           
         C22       1.0000    0.57659   0.39071   0.36780   Biso      1.000     C          0.642512  
         C23       1.0000    0.70865   0.42102   0.40258   Biso      1.000     C          -0.251905           
         C24       1.0000    0.90111   0.40307   0.41571   Biso      1.000     C          0.272918  
         C25       1.0000    0.01565   0.44147   0.45162   Biso      1.000     C          -0.233635           
         C26       1.0000    0.94742   0.49024   0.47417   Biso      1.000     C          0.102215  
         C27       1.0000    0.76569   0.51222   0.45400   Biso      1.000     C          -0.153003           
         C28       1.0000    0.18588   0.24149   0.39071   Biso      1.000     C          0.643753  
         C29       1.0000    0.83005   0.90236   0.51734   Biso      1.000     C          -0.071844           
         C30       1.0000    0.74653   0.96622   0.48778   Biso      1.000     C          -0.151666           
         C31       1.0000    0.54282   0.96441   0.50976   Biso      1.000     C          0.101035  
         C32       1.0000    0.07231   0.41970   0.09764   Biso      1.000     C          -0.074016           
         C33       1.0000    0.21969   0.45400   0.03378   Biso      1.000     C          -0.150333           
         C34       1.0000    0.42159   0.47417   0.03559   Biso      1.000     C          0.100821  
         C35       1.0000    0.46727   0.45162   0.10691   Biso      1.000     C          -0.232714           
         C36       1.0000    0.31682   0.41571   0.18122   Biso      1.000     C          0.272618  
         C37       1.0000    0.65261   0.48266   0.41970   Biso      1.000     C          -0.071525           
         C38       1.0000    0.94439   0.36780   0.24149   Biso      1.000     C          0.643952  
         C39       1.0000    0.42582   0.89309   0.55853   Biso      1.000     C          -0.23347  
         C40       1.0000    0.50196   0.81878   0.59693   Biso      1.000     C          0.272846  
         C41       1.0000    0.71237   0.82360   0.57898   Biso      1.000     C          -0.250556           
         C42       1.0000    0.81412   0.75851   0.60929   Biso      1.000     C          0.643753  
         H1        1.0000    0.70582   0.55283   0.46389   Biso      1.000     H          0.112338  
         H2        1.0000    0.16971   0.46389   0.98328   Biso      1.000     H          0.111867  
         H3        1.0000    0.26748   0.88574   0.57638   Biso      1.000     H          0.118783  
         H4        1.0000    0.98857   0.90780   0.49824   Biso      1.000     H          0.108335  
         H5        1.0000    0.84701   0.01672   0.44717   Biso      1.000     H          0.112076  
         H6        1.0000    0.84386   0.57638   0.53788   Biso      1.000     H          0.118636  
         H7        1.0000    0.48681   0.49824   0.59396   Biso      1.000     H          0.10857   
         H8        1.0000    0.29418   0.44717   0.53611   Biso      1.000     H          0.112338  
         H9        1.0000    0.38174   0.53788   0.88574   Biso      1.000     H          0.118188  
         H10       1.0000    0.08077   0.59396   0.90780   Biso      1.000     H          0.109059  
         H11       1.0000    0.91923   0.40604   0.09220   Biso      1.000     H          0.109059  
         H12       1.0000    0.73252   0.11426   0.42362   Biso      1.000     H          0.118783  
         H13       1.0000    0.01143   0.09220   0.50176   Biso      1.000     H          0.108335  
         H14       1.0000    0.15299   0.98328   0.55283   Biso      1.000     H          0.112076  
         H15       1.0000    0.15614   0.42362   0.46212   Biso      1.000     H          0.118636  
         H16       1.0000    0.51319   0.50176   0.40604   Biso      1.000     H          0.10857   
         H17       1.0000    0.61826   0.46212   0.11426   Biso      1.000     H          0.118188  
         H18       1.0000    0.83029   0.53611   0.01672   Biso      1.000     H          0.111867  
         Mg1       1.0000    0.17828   0.69636   0.61869   Biso      1.000     Mg          1.543395  
         Mg2       1.0000    0.51808   0.31505   0.30364   Biso      1.000     Mg          1.544594  
         Mg3       1.0000    0.20303   0.38131   0.31505   Biso      1.000     Mg          1.543346  
         Mg4       1.0000    0.82172   0.30364   0.38131   Biso      1.000     Mg          1.543395  
         Mg5       1.0000    0.48192   0.68495   0.69636   Biso      1.000     Mg          1.544594  
         Mg6       1.0000    0.79697   0.61869   0.68495   Biso      1.000     Mg          1.543346  
         O1        1.0000    0.76329   0.35834   0.23095   Biso      1.000     O          -0.625659           
         O2        1.0000    0.98470   0.35213   0.40083   Biso      1.000     O          -0.760781           
         O3        1.0000    0.63083   0.34717   0.34688   Biso      1.000     O          -0.805872           
         O4        1.0000    0.40495   0.41071   0.35834   Biso      1.000     O          -0.623794           
         O5        1.0000    0.63257   0.24704   0.35213   Biso      1.000     O          -0.761756           
         O6        1.0000    0.28366   0.30595   0.34717   Biso      1.000     O          -0.807647           
         O7        1.0000    0.99424   0.23095   0.41071   Biso      1.000     O          -0.624318           
         O8        1.0000    0.61447   0.59917   0.75296   Biso      1.000     O          -0.761206           
         O9        1.0000    0.23671   0.64166   0.76905   Biso      1.000     O          -0.625659           
         O10       1.0000    0.97771   0.34688   0.30595   Biso      1.000     O          -0.806324           
         O11       1.0000    0.01530   0.64787   0.59917   Biso      1.000     O          -0.760781           
         O12       1.0000    0.36917   0.65283   0.65312   Biso      1.000     O          -0.805872           
         O13       1.0000    0.59505   0.58929   0.64166   Biso      1.000     O          -0.623794           
         O14       1.0000    0.36743   0.75296   0.64787   Biso      1.000     O          -0.761756           
         O15       1.0000    0.71634   0.69405   0.65283   Biso      1.000     O          -0.807647           
         O16       1.0000    0.00576   0.76905   0.58929   Biso      1.000     O          -0.624318           
         O17       1.0000    0.02229   0.65312   0.69405   Biso      1.000     O          -0.806324           
         O18       1.0000    0.38553   0.40083   0.24704   Biso      1.000     O          -0.761205 