
##########################################################################
#               Crystallographic Information Format file
#               Produced by PyCifRW module
#
#  This is a CIF file.  CIF has been adopted by the International
#  Union of Crystallography as the standard for data archiving and
#  transmission.
#
#  For information on this file format, follow the CIF links at
#  http://www.iucr.org
##########################################################################

data_image0

_cell_length_a                          6.4739
_cell_length_b                          26.5533
_cell_length_c                          26.5533
_cell_angle_alpha                       60.6533
_cell_angle_beta                        85.3385
_cell_angle_gamma                       94.6615
_symmetry_space_group_name_H-M          'P 1'
_symmetry_int_tables_number             1
loop_
  _symmetry_equiv_pos_as_xyz
         'x, y, z' 
loop_
  _atom_site_label
  _atom_site_occupancy
  _atom_site_fract_x
  _atom_site_fract_y
  _atom_site_fract_z
  _atom_site_thermal_displace_type
  _atom_site_B_iso_or_equiv
  _atom_site_type_symbol
  _atom_site_charge
         C1        1.0000    0.07976   0.54897   0.59678   Biso      1.000     C          -0.061048000000000005         
         C2        1.0000    0.07960   0.55874   0.97722   Biso      1.000     C          0.12211500000000002           
         C3        1.0000    0.15315   0.52822   0.95036   Biso      1.000     C          0.006929  
         C4        1.0000    0.67654   0.59678   0.85425   Biso      1.000     C          -0.06287999999999999          
         C5        1.0000    0.52417   0.57037   0.90308   Biso      1.000     C          -0.176085           
         C6        1.0000    0.31502   0.55619   0.89853   Biso      1.000     C          0.1126    
         C7        1.0000    0.26072   0.56827   0.84455   Biso      1.000     C          -0.24956599999999998          
         C8        1.0000    0.41055   0.59584   0.79475   Biso      1.000     C          0.33265700000000004           
         C9        1.0000    0.62424   0.60962   0.79920   Biso      1.000     C          -0.22823200000000002          
         C10       1.0000    0.79543   0.63793   0.74894   Biso      1.000     C          0.6880310000000001  
         C11       1.0000    0.53555   0.42533   0.62188   Biso      1.000     C          -0.40412800000000004          
         C12       1.0000    0.60230   0.55679   0.46996   Biso      1.000     C          -0.200321           
         C13       1.0000    0.52086   0.46404   0.55874   Biso      1.000     C          0.122554  
         C14       1.0000    0.62493   0.52142   0.52822   Biso      1.000     C          0.008309  
         C15       1.0000    0.47583   0.42963   0.09692   Biso      1.000     C          -0.176085           
         C16       1.0000    0.95380   0.52655   0.57037   Biso      1.000     C          -0.17770999999999998          
         C17       1.0000    0.75883   0.54528   0.55619   Biso      1.000     C          0.113705  
         C18       1.0000    0.69245   0.58718   0.56827   Biso      1.000     C          -0.25059000000000003          
         C19       1.0000    0.81471   0.60941   0.59584   Biso      1.000     C          0.33218000000000003           
         C20       1.0000    0.01462   0.59118   0.60962   Biso      1.000     C          -0.228327           
         C21       1.0000    0.15750   0.61313   0.63793   Biso      1.000     C          0.687588  
         C22       1.0000    0.11022   0.95279   0.42533   Biso      1.000     C          -0.40409  
         C23       1.0000    0.04551   0.97325   0.55679   Biso      1.000     C          -0.19881600000000002          
         C24       1.0000    0.05682   0.97722   0.46404   Biso      1.000     C          0.12003599999999999           
         C25       1.0000    0.07226   0.46996   0.97325   Biso      1.000     C          -0.19879000000000002          
         C26       1.0000    0.10351   0.95036   0.52142   Biso      1.000     C          0.009355  
         C27       1.0000    0.15743   0.62188   0.95279   Biso      1.000     C          -0.403345           
         C28       1.0000    0.57656   0.20080   0.40882   Biso      1.000     C          -0.229125           
         C29       1.0000    0.58945   0.40416   0.20525   Biso      1.000     C          0.33265700000000004           
         C30       1.0000    0.37576   0.39038   0.20080   Biso      1.000     C          -0.22823200000000002          
         C31       1.0000    0.20457   0.36207   0.25106   Biso      1.000     C          0.6880310000000001  
         C32       1.0000    0.46445   0.57467   0.37812   Biso      1.000     C          -0.40412800000000004          
         C33       1.0000    0.39770   0.44321   0.53004   Biso      1.000     C          -0.200321           
         C34       1.0000    0.47914   0.53596   0.44126   Biso      1.000     C          0.122555  
         C35       1.0000    0.37507   0.47858   0.47178   Biso      1.000     C          0.008309  
         C36       1.0000    0.92024   0.45103   0.40322   Biso      1.000     C          -0.061048000000000005         
         C37       1.0000    0.04620   0.47345   0.42963   Biso      1.000     C          -0.17770999999999998          
         C38       1.0000    0.24117   0.45472   0.44381   Biso      1.000     C          0.113705  
         C39       1.0000    0.30755   0.41282   0.43173   Biso      1.000     C          -0.25059000000000003          
         C40       1.0000    0.18529   0.39059   0.40416   Biso      1.000     C          0.33218000000000003           
         C41       1.0000    0.98538   0.40882   0.39038   Biso      1.000     C          -0.228327           
         C42       1.0000    0.84250   0.38687   0.36207   Biso      1.000     C          0.687588  
         C43       1.0000    0.88978   0.04721   0.57467   Biso      1.000     C          -0.40409  
         C44       1.0000    0.95449   0.02675   0.44321   Biso      1.000     C          -0.19881600000000002          
         C45       1.0000    0.94318   0.02278   0.53596   Biso      1.000     C          0.12003599999999999           
         C46       1.0000    0.89649   0.04964   0.47858   Biso      1.000     C          0.009355  
         C47       1.0000    0.46921   0.14575   0.45103   Biso      1.000     C          -0.060917           
         C48       1.0000    0.57275   0.09692   0.47345   Biso      1.000     C          -0.17744100000000002          
         C49       1.0000    0.78645   0.10147   0.45472   Biso      1.000     C          0.11340499999999999           
         C50       1.0000    0.89473   0.15545   0.41282   Biso      1.000     C          -0.251949           
         C51       1.0000    0.79470   0.20525   0.39059   Biso      1.000     C          0.33479899999999996           
         C52       1.0000    0.45563   0.25106   0.38687   Biso      1.000     C          0.686067  
         C53       1.0000    0.53079   0.85425   0.54897   Biso      1.000     C          -0.060917           
         C54       1.0000    0.42725   0.90308   0.52655   Biso      1.000     C          -0.17744100000000002          
         C55       1.0000    0.21355   0.89853   0.54528   Biso      1.000     C          0.11340499999999999           
         C56       1.0000    0.84257   0.37812   0.04721   Biso      1.000     C          -0.403345           
         C57       1.0000    0.92774   0.53004   0.02675   Biso      1.000     C          -0.19879000000000002          
         C58       1.0000    0.92040   0.44126   0.02278   Biso      1.000     C          0.12211500000000002           
         C59       1.0000    0.84685   0.47178   0.04964   Biso      1.000     C          0.0069299999999999995         
         C60       1.0000    0.32346   0.40322   0.14575   Biso      1.000     C          -0.06287999999999999          
         C61       1.0000    0.73928   0.43173   0.15545   Biso      1.000     C          -0.24956599999999998          
         C62       1.0000    0.68498   0.44381   0.10147   Biso      1.000     C          0.1126    
         C63       1.0000    0.10527   0.84455   0.58718   Biso      1.000     C          -0.251949           
         C64       1.0000    0.20530   0.79475   0.60941   Biso      1.000     C          0.33479899999999996           
         C65       1.0000    0.42344   0.79920   0.59118   Biso      1.000     C          -0.229125           
         C66       1.0000    0.54437   0.74894   0.61313   Biso      1.000     C          0.686067  
         H1        1.0000    0.86970   0.55316   0.04753   Biso      1.000     H          0.10683699999999999           
         H2        1.0000    0.70112   0.41715   0.62792   Biso      1.000     H          0.124449  
         H3        1.0000    0.43525   0.38294   0.63985   Biso      1.000     H          0.121896  
         H4        1.0000    0.48195   0.44618   0.64672   Biso      1.000     H          0.12978800000000001           
         H5        1.0000    0.68346   0.60069   0.44684   Biso      1.000     H          0.107123  
         H6        1.0000    0.00895   0.49467   0.56060   Biso      1.000     H          0.102736  
         H7        1.0000    0.22920   0.53287   0.60750   Biso      1.000     H          0.104405  
         H8        1.0000    0.54391   0.60295   0.55620   Biso      1.000     H          0.130098  
         H9        1.0000    0.03577   0.90710   0.44618   Biso      1.000     H          0.130106  
         H10       1.0000    0.05231   0.97721   0.38294   Biso      1.000     H          0.12211199999999998           
         H11       1.0000    0.10011   0.55620   0.84085   Biso      1.000     H          0.12985   
         H12       1.0000    0.08277   0.95247   0.60069   Biso      1.000     H          0.106696  
         H13       1.0000    0.51428   0.94473   0.49467   Biso      1.000     H          0.103077  
         H14       1.0000    0.69633   0.85963   0.53287   Biso      1.000     H          0.103879  
         H15       1.0000    0.94096   0.84085   0.60295   Biso      1.000     H          0.1304    
         H16       1.0000    0.67096   0.37208   0.04507   Biso      1.000     H          0.12429200000000001           
         H17       1.0000    0.28397   0.95493   0.41715   Biso      1.000     H          0.12440799999999999           
         H18       1.0000    0.83670   0.60750   0.85963   Biso      1.000     H          0.10468499999999999           
         H19       1.0000    0.56955   0.56060   0.94473   Biso      1.000     H          0.10263599999999999           
         H20       1.0000    0.13030   0.44684   0.95247   Biso      1.000     H          0.10683699999999999           
         H21       1.0000    0.43045   0.43940   0.05527   Biso      1.000     H          0.10263599999999999           
         H22       1.0000    0.16330   0.39250   0.14037   Biso      1.000     H          0.10468599999999999           
         H23       1.0000    0.89989   0.44380   0.15915   Biso      1.000     H          0.12985   
         H24       1.0000    0.29888   0.58285   0.37208   Biso      1.000     H          0.124449  
         H25       1.0000    0.56475   0.61706   0.36015   Biso      1.000     H          0.121896  
         H26       1.0000    0.51805   0.55382   0.35328   Biso      1.000     H          0.12978800000000001           
         H27       1.0000    0.31654   0.39931   0.55316   Biso      1.000     H          0.107124  
         H28       1.0000    0.99105   0.50533   0.43940   Biso      1.000     H          0.102736  
         H29       1.0000    0.77080   0.46713   0.39250   Biso      1.000     H          0.104405  
         H30       1.0000    0.87133   0.35328   0.09290   Biso      1.000     H          0.129848  
         H31       1.0000    0.45609   0.39705   0.44380   Biso      1.000     H          0.130098  
         H32       1.0000    0.94769   0.02279   0.61706   Biso      1.000     H          0.12211199999999998           
         H33       1.0000    0.96423   0.09290   0.55382   Biso      1.000     H          0.130106  
         H34       1.0000    0.91723   0.04753   0.39931   Biso      1.000     H          0.106696  
         H35       1.0000    0.48572   0.05527   0.50533   Biso      1.000     H          0.103077  
         H36       1.0000    0.30367   0.14037   0.46713   Biso      1.000     H          0.103879  
         H37       1.0000    0.05904   0.15915   0.39705   Biso      1.000     H          0.1304    
         H38       1.0000    0.92490   0.36015   0.02279   Biso      1.000     H          0.12156199999999999           
         H39       1.0000    0.07510   0.63985   0.97721   Biso      1.000     H          0.12156199999999999           
         H40       1.0000    0.12867   0.64672   0.90710   Biso      1.000     H          0.129848  
         H41       1.0000    0.71603   0.04507   0.58285   Biso      1.000     H          0.12440799999999999           
         H42       1.0000    0.32904   0.62792   0.95493   Biso      1.000     H          0.12429200000000001           
         Mg1       1.0000    0.91450   0.69876   0.62373   Biso      1.000     Mg          1.456019  
         Mg2       1.0000    0.78426   0.32249   0.30124   Biso      1.000     Mg          1.4565379999999999  
         Mg3       1.0000    0.46177   0.37627   0.32249   Biso      1.000     Mg          1.4562950000000001  
         Mg4       1.0000    0.08550   0.30124   0.37627   Biso      1.000     Mg          1.456019  
         Mg5       1.0000    0.21574   0.67751   0.69876   Biso      1.000     Mg          1.4565379999999999  
         Mg6       1.0000    0.53823   0.62373   0.67751   Biso      1.000     Mg          1.4562950000000001  
         O1        1.0000    0.01871   0.35163   0.24236   Biso      1.000     O          -0.6502600000000001           
         O2        1.0000    0.26790   0.34958   0.39378   Biso      1.000     O          -0.790162           
         O3        1.0000    0.89032   0.34981   0.34883   Biso      1.000     O          -0.778504           
         O4        1.0000    0.66708   0.40601   0.35163   Biso      1.000     O          -0.650171           
         O5        1.0000    0.91832   0.25664   0.34958   Biso      1.000     O          -0.791022           
         O6        1.0000    0.54051   0.30136   0.34981   Biso      1.000     O          -0.777805           
         O7        1.0000    0.26107   0.24236   0.40601   Biso      1.000     O          -0.6494770000000001           
         O8        1.0000    0.33832   0.60622   0.74336   Biso      1.000     O          -0.7902520000000001           
         O9        1.0000    0.98129   0.64837   0.75764   Biso      1.000     O          -0.6502600000000001           
         O10       1.0000    0.23915   0.34883   0.30136   Biso      1.000     O          -0.779053           
         O11       1.0000    0.73210   0.65042   0.60622   Biso      1.000     O          -0.790162           
         O12       1.0000    0.10968   0.65019   0.65117   Biso      1.000     O          -0.778504           
         O13       1.0000    0.33292   0.59399   0.64837   Biso      1.000     O          -0.650171           
         O14       1.0000    0.08168   0.74336   0.65042   Biso      1.000     O          -0.791022           
         O15       1.0000    0.45949   0.69864   0.65019   Biso      1.000     O          -0.777805           
         O16       1.0000    0.73893   0.75764   0.59399   Biso      1.000     O          -0.6494770000000001           
         O17       1.0000    0.76085   0.65117   0.69864   Biso      1.000     O          -0.779053           
         O18       1.0000    0.66168   0.39378   0.25664   Biso      1.000     O          -0.7902520000000001 