
##########################################################################
#               Crystallographic Information Format file
#               Produced by PyCifRW module
#
#  This is a CIF file.  CIF has been adopted by the International
#  Union of Crystallography as the standard for data archiving and
#  transmission.
#
#  For information on this file format, follow the CIF links at
#  http://www.iucr.org
##########################################################################

data_image0

_cell_length_a                          6.694
_cell_length_b                          32.1967
_cell_length_c                          32.1967
_cell_angle_alpha                       60.4755
_cell_angle_beta                        86.0261
_cell_angle_gamma                       93.9739
_symmetry_space_group_name_H-M          'P 1'
_symmetry_int_tables_number             1
loop_
  _symmetry_equiv_pos_as_xyz
         'x, y, z' 
loop_
  _atom_site_label
  _atom_site_occupancy
  _atom_site_fract_x
  _atom_site_fract_y
  _atom_site_fract_z
  _atom_site_thermal_displace_type
  _atom_site_B_iso_or_equiv
  _atom_site_type_symbol
  _atom_site_charge
         C1        1.0000    0.04459   0.43065   0.42749   Biso      1.000     C          0.117996  
         C2        1.0000    0.46883   0.59615   0.45382   Biso      1.000     C          -0.402529           
         C3        1.0000    0.87303   0.46811   0.60997   Biso      1.000     C          -0.409497           
         C4        1.0000    0.78008   0.42279   0.09867   Biso      1.000     C          0.126786  
         C5        1.0000    0.92292   0.44295   0.05883   Biso      1.000     C          -0.193959           
         C6        1.0000    0.91096   0.48816   0.01968   Biso      1.000     C          0.017539  
         C7        1.0000    0.75208   0.51326   0.02108   Biso      1.000     C          0.114133  
         C8        1.0000    0.60902   0.49297   0.06091   Biso      1.000     C          -0.180889           
         C9        1.0000    0.62269   0.44807   0.09995   Biso      1.000     C          0.006332  
         C10       1.0000    0.86191   0.59564   0.82299   Biso      1.000     C          -0.057264           
         C11       1.0000    0.71971   0.57515   0.86280   Biso      1.000     C          -0.162135           
         C12       1.0000    0.51964   0.56918   0.85785   Biso      1.000     C          0.11776   
         C13       1.0000    0.46537   0.58262   0.81267   Biso      1.000     C          -0.259986           
         C14       1.0000    0.39167   0.39404   0.22739   Biso      1.000     C          0.329618  
         C15       1.0000    0.18657   0.38727   0.22323   Biso      1.000     C          -0.216626           
         C16       1.0000    0.02644   0.36271   0.26437   Biso      1.000     C          0.686144  
         C17       1.0000    0.16886   0.45814   0.56127   Biso      1.000     C          -0.402862           
         C18       1.0000    0.42264   0.48685   0.37416   Biso      1.000     C          -0.4424   
         C19       1.0000    0.78644   0.50216   0.56665   Biso      1.000     C          0.117755  
         C20       1.0000    0.66207   0.48360   0.54581   Biso      1.000     C          -0.18455  
         C21       1.0000    0.95046   0.57297   0.56918   Biso      1.000     C          0.117793  
         C22       1.0000    0.88275   0.60471   0.58262   Biso      1.000     C          -0.259082           
         C23       1.0000    0.99763   0.37857   0.39404   Biso      1.000     C          0.329119  
         C24       1.0000    0.79930   0.38950   0.38727   Biso      1.000     C          -0.216106           
         C25       1.0000    0.66373   0.37292   0.36271   Biso      1.000     C          0.687418  
         C26       1.0000    0.33458   0.62832   0.63581   Biso      1.000     C          0.689771  
         C27       1.0000    0.19883   0.61254   0.61064   Biso      1.000     C          -0.22222  
         C28       1.0000    0.97039   0.63581   0.73587   Biso      1.000     C          0.687568  
         C29       1.0000    0.00157   0.62419   0.60360   Biso      1.000     C          0.334452  
         C30       1.0000    0.17847   0.97059   0.48360   Biso      1.000     C          -0.184595           
         C31       1.0000    0.85038   0.44088   0.42185   Biso      1.000     C          -0.160849           
         C32       1.0000    0.72999   0.42077   0.40189   Biso      1.000     C          -0.080571           
         C33       1.0000    0.81748   0.55175   0.54853   Biso      1.000     C          0.009846  
         C34       1.0000    0.71429   0.58160   0.51106   Biso      1.000     C          -0.186096           
         C35       1.0000    0.58371   0.56284   0.49149   Biso      1.000     C          0.119092  
         C36       1.0000    0.55798   0.51338   0.50854   Biso      1.000     C          0.021422  
         C37       1.0000    0.11583   0.39914   0.41422   Biso      1.000     C          -0.246379           
         C38       1.0000    0.14456   0.56205   0.57515   Biso      1.000     C          -0.162688           
         C39       1.0000    0.80947   0.61064   0.77682   Biso      1.000     C          -0.222474           
         C40       1.0000    0.53005   0.41422   0.18664   Biso      1.000     C          -0.246114           
         C41       1.0000    0.58251   0.86280   0.56205   Biso      1.000     C          -0.162906           
         C42       1.0000    0.37749   0.85785   0.57297   Biso      1.000     C          0.118597  
         C43       1.0000    0.27804   0.81267   0.60471   Biso      1.000     C          -0.260191           
         C44       1.0000    0.61906   0.22739   0.37857   Biso      1.000     C          0.329906  
         C45       1.0000    0.40980   0.22323   0.38950   Biso      1.000     C          -0.217588           
         C46       1.0000    0.29081   0.26437   0.37292   Biso      1.000     C          0.687704  
         C47       1.0000    0.70626   0.73587   0.62832   Biso      1.000     C          0.688819  
         C48       1.0000    0.58629   0.77682   0.61254   Biso      1.000     C          -0.222461           
         C49       1.0000    0.37738   0.77221   0.62419   Biso      1.000     C          0.335072  
         C50       1.0000    0.71669   0.18664   0.39914   Biso      1.000     C          -0.246438           
         C51       1.0000    0.61394   0.14186   0.43065   Biso      1.000     C          0.118441  
         C52       1.0000    0.40950   0.13727   0.44088   Biso      1.000     C          -0.16217  
         C53       1.0000    0.30922   0.17734   0.42077   Biso      1.000     C          -0.079047           
         C54       1.0000    0.26573   0.89972   0.55175   Biso      1.000     C          0.009964  
         C55       1.0000    0.13269   0.90734   0.58160   Biso      1.000     C          -0.186382           
         C56       1.0000    0.68490   0.82299   0.58137   Biso      1.000     C          -0.057402           
         C57       1.0000    0.72264   0.09995   0.45198   Biso      1.000     C          0.005693  
         C58       1.0000    0.66993   0.06091   0.44612   Biso      1.000     C          -0.181745           
         C59       1.0000    0.77316   0.02108   0.46566   Biso      1.000     C          0.114817  
         C60       1.0000    0.47208   0.42749   0.14186   Biso      1.000     C          0.118744  
         C61       1.0000    0.27223   0.42185   0.13727   Biso      1.000     C          -0.161948           
         C62       1.0000    0.13188   0.40189   0.17734   Biso      1.000     C          -0.080068           
         C63       1.0000    0.36601   0.54853   0.89972   Biso      1.000     C          0.00982   
         C64       1.0000    0.22535   0.51106   0.90734   Biso      1.000     C          -0.185797           
         C65       1.0000    0.07520   0.49149   0.94567   Biso      1.000     C          0.119498  
         C66       1.0000    0.06652   0.50854   0.97808   Biso      1.000     C          0.020272  
         C67       1.0000    0.60517   0.60360   0.77221   Biso      1.000     C          0.335236  
         C68       1.0000    0.20788   0.54581   0.97059   Biso      1.000     C          -0.184722           
         C69       1.0000    0.79680   0.37416   0.13899   Biso      1.000     C          -0.441608           
         C70       1.0000    0.73013   0.56127   0.98059   Biso      1.000     C          -0.400844           
         C71       1.0000    0.92265   0.45382   0.95003   Biso      1.000     C          -0.402047           
         C72       1.0000    0.48300   0.60997   0.92192   Biso      1.000     C          -0.408239           
         C73       1.0000    0.87875   0.09867   0.47854   Biso      1.000     C          0.128552  
         C74       1.0000    0.98175   0.05883   0.49822   Biso      1.000     C          -0.193869           
         C75       1.0000    0.93064   0.01968   0.49216   Biso      1.000     C          0.016479  
         C76       1.0000    0.35309   0.56665   0.93119   Biso      1.000     C          0.118279  
         C77       1.0000    0.26627   0.58137   0.59564   Biso      1.000     C          -0.057257           
         C78       1.0000    0.17462   0.45198   0.44807   Biso      1.000     C          0.007371  
         C79       1.0000    0.11605   0.44612   0.49297   Biso      1.000     C          -0.182468           
         C80       1.0000    0.40492   0.92192   0.46811   Biso      1.000     C          -0.408386           
         C81       1.0000    0.87268   0.95003   0.59615   Biso      1.000     C          -0.399895           
         C82       1.0000    0.71072   0.98059   0.45814   Biso      1.000     C          -0.401604           
         C83       1.0000    0.93579   0.13899   0.48685   Biso      1.000     C          -0.443115           
         C84       1.0000    0.28428   0.93119   0.50216   Biso      1.000     C          0.117976  
         C85       1.0000    0.02087   0.94567   0.56284   Biso      1.000     C          0.117856  
         C86       1.0000    0.04460   0.97808   0.51338   Biso      1.000     C          0.021993  
         C87       1.0000    0.23882   0.46566   0.51326   Biso      1.000     C          0.114151  
         C88       1.0000    0.42280   0.49216   0.48816   Biso      1.000     C          0.020109  
         C89       1.0000    0.47997   0.49822   0.44295   Biso      1.000     C          -0.195341           
         C90       1.0000    0.35729   0.47854   0.42279   Biso      1.000     C          0.127006  
         H1        1.0000    0.82128   0.98663   0.57752   Biso      1.000     H          0.119189  
         H2        1.0000    0.16958   0.49386   0.55949   Biso      1.000     H          0.119094  
         H3        1.0000    0.57166   0.62866   0.42645   Biso      1.000     H          0.122183  
         H4        1.0000    0.34892   0.60751   0.47064   Biso      1.000     H          0.124959  
         H5        1.0000    0.39880   0.57752   0.43585   Biso      1.000     H          0.119774  
         H6        1.0000    0.79193   0.46615   0.64263   Biso      1.000     H          0.117358  
         H7        1.0000    0.05046   0.42281   0.05783   Biso      1.000     H          0.104418  
         H8        1.0000    0.85760   0.43152   0.61352   Biso      1.000     H          0.120696  
         H9        1.0000    0.01311   0.43878   0.57314   Biso      1.000     H          0.124455  
         H10       1.0000    0.48050   0.51292   0.06178   Biso      1.000     H          0.09406   
         H11       1.0000    0.76608   0.56325   0.89944   Biso      1.000     H          0.092084  
         H12       1.0000    0.02369   0.60060   0.82726   Biso      1.000     H          0.099333  
         H13       1.0000    0.03523   0.48080   0.60664   Biso      1.000     H          0.122551  
         H14       1.0000    0.27075   0.43605   0.58769   Biso      1.000     H          0.124463  
         H15       1.0000    0.29957   0.47192   0.36184   Biso      1.000     H          0.119092  
         H16       1.0000    0.55875   0.46847   0.37528   Biso      1.000     H          0.14273   
         H17       1.0000    0.30472   0.57658   0.80816   Biso      1.000     H          0.119327  
         H18       1.0000    0.64592   0.44390   0.55942   Biso      1.000     H          0.095926  
         H19       1.0000    0.73620   0.62149   0.49626   Biso      1.000     H          0.102395  
         H20       1.0000    0.78992   0.46558   0.43353   Biso      1.000     H          0.089499  
         H21       1.0000    0.57238   0.42940   0.39705   Biso      1.000     H          0.109309  
         H22       1.0000    0.27270   0.39030   0.42008   Biso      1.000     H          0.124986  
         H23       1.0000    0.72814   0.61526   0.57658   Biso      1.000     H          0.11887   
         H24       1.0000    0.42309   0.57214   0.60060   Biso      1.000     H          0.099748  
         H25       1.0000    0.20283   0.53731   0.56325   Biso      1.000     H          0.092704  
         H26       1.0000    0.96758   0.42530   0.51292   Biso      1.000     H          0.094296  
         H27       1.0000    0.62765   0.51936   0.42281   Biso      1.000     H          0.104599  
         H28       1.0000    0.42608   0.95496   0.43152   Biso      1.000     H          0.120338  
         H29       1.0000    0.45914   0.52648   0.34851   Biso      1.000     H          0.119777  
         H30       1.0000    0.69278   0.42008   0.18962   Biso      1.000     H          0.124453  
         H31       1.0000    0.96943   0.39705   0.17355   Biso      1.000     H          0.109068  
         H32       1.0000    0.22345   0.43353   0.10089   Biso      1.000     H          0.090216  
         H33       1.0000    0.11288   0.80816   0.61526   Biso      1.000     H          0.119253  
         H34       1.0000    0.88240   0.18962   0.39030   Biso      1.000     H          0.124688  
         H35       1.0000    0.14298   0.17355   0.42940   Biso      1.000     H          0.108657  
         H36       1.0000    0.32434   0.10089   0.46558   Biso      1.000     H          0.09053   
         H37       1.0000    0.11471   0.88225   0.62149   Biso      1.000     H          0.102641  
         H38       1.0000    0.20202   0.99668   0.44390   Biso      1.000     H          0.096058  
         H39       1.0000    0.85095   0.82726   0.57214   Biso      1.000     H          0.099937  
         H40       1.0000    0.82765   0.16624   0.47192   Biso      1.000     H          0.119536  
         H41       1.0000    0.93266   0.12501   0.52648   Biso      1.000     H          0.119505  
         H42       1.0000    0.83470   0.97626   0.43605   Biso      1.000     H          0.124089  
         H43       1.0000    0.57433   0.98808   0.43878   Biso      1.000     H          0.124409  
         H44       1.0000    0.67572   0.94665   0.49386   Biso      1.000     H          0.118502  
         H45       1.0000    0.94300   0.94489   0.62866   Biso      1.000     H          0.121574  
         H46       1.0000    0.74141   0.92185   0.60751   Biso      1.000     H          0.124507  
         H47       1.0000    0.09028   0.15625   0.46847   Biso      1.000     H          0.143079  
         H48       1.0000    0.32578   0.89122   0.46615   Biso      1.000     H          0.11675   
         H49       1.0000    0.66552   0.89944   0.53731   Biso      1.000     H          0.092481  
         H50       1.0000    0.10829   0.05783   0.51936   Biso      1.000     H          0.104271  
         H51       1.0000    0.23246   0.49626   0.88225   Biso      1.000     H          0.102329  
         H52       1.0000    0.20534   0.55942   0.99668   Biso      1.000     H          0.09614   
         H53       1.0000    0.55443   0.91256   0.48080   Biso      1.000     H          0.12253   
         H54       1.0000    0.93403   0.37528   0.15625   Biso      1.000     H          0.14237   
         H55       1.0000    0.80765   0.34851   0.12501   Biso      1.000     H          0.119846  
         H56       1.0000    0.85844   0.58769   0.97626   Biso      1.000     H          0.123743  
         H57       1.0000    0.54228   0.06178   0.42530   Biso      1.000     H          0.094521  
         H58       1.0000    0.58625   0.57314   0.98808   Biso      1.000     H          0.123883  
         H59       1.0000    0.99811   0.42645   0.94489   Biso      1.000     H          0.121977  
         H60       1.0000    0.81956   0.47064   0.92185   Biso      1.000     H          0.124887  
         H61       1.0000    0.83465   0.43585   0.98663   Biso      1.000     H          0.119972  
         H62       1.0000    0.43456   0.64263   0.89122   Biso      1.000     H          0.116649  
         H63       1.0000    0.64187   0.60664   0.91256   Biso      1.000     H          0.122005  
         H64       1.0000    0.47112   0.61352   0.95496   Biso      1.000     H          0.120452  
         H65       1.0000    0.72907   0.55949   0.94665   Biso      1.000     H          0.119021  
         H66       1.0000    0.66141   0.36184   0.16624   Biso      1.000     H          0.11911   
         Mg1       1.0000    0.28374   0.37030   0.32628   Biso      1.000     Mg          1.448679  
         Mg2       1.0000    0.08477   0.69729   0.63018   Biso      1.000     Mg          1.450367  
         Mg3       1.0000    0.91344   0.30342   0.37030   Biso      1.000     Mg          1.448993  
         Mg4       1.0000    0.38748   0.67253   0.69729   Biso      1.000     Mg          1.450165  
         Mg5       1.0000    0.61002   0.32628   0.30342   Biso      1.000     Mg          1.449615  
         Mg6       1.0000    0.71495   0.63018   0.67253   Biso      1.000     Mg          1.449576  
         O1        1.0000    0.89228   0.74448   0.61476   Biso      1.000     O          -0.645699           
         O2        1.0000    0.10500   0.25608   0.38662   Biso      1.000     O          -0.638552           
         O3        1.0000    0.37149   0.30704   0.34584   Biso      1.000     O          -0.770328           
         O4        1.0000    0.73553   0.26986   0.34580   Biso      1.000     O          -0.793373           
         O5        1.0000    0.53248   0.61439   0.72936   Biso      1.000     O          -0.791223           
         O6        1.0000    0.93302   0.65241   0.69301   Biso      1.000     O          -0.770124           
         O7        1.0000    0.14780   0.64076   0.74448   Biso      1.000     O          -0.645015           
         O8        1.0000    0.84892   0.35730   0.25608   Biso      1.000     O          -0.637722           
         O9        1.0000    0.46567   0.38434   0.26986   Biso      1.000     O          -0.792978           
         O10       1.0000    0.62603   0.69301   0.65458   Biso      1.000     O          -0.771011           
         O11       1.0000    0.91809   0.65625   0.61439   Biso      1.000     O          -0.791338           
         O12       1.0000    0.28061   0.65458   0.65241   Biso      1.000     O          -0.771147           
         O13       1.0000    0.50704   0.61476   0.64076   Biso      1.000     O          -0.646856           
         O14       1.0000    0.49162   0.38662   0.35730   Biso      1.000     O          -0.638587           
         O15       1.0000    0.71733   0.34584   0.34712   Biso      1.000     O          -0.770367           
         O16       1.0000    0.08133   0.34580   0.38434   Biso      1.000     O          -0.792793           
         O17       1.0000    0.06445   0.34712   0.30704   Biso      1.000     O          -0.76999  
         O18       1.0000    0.26184   0.72936   0.65625   Biso      1.000     O          -0.791628 