
##########################################################################
#               Crystallographic Information Format file
#               Produced by PyCifRW module
#
#  This is a CIF file.  CIF has been adopted by the International
#  Union of Crystallography as the standard for data archiving and
#  transmission.
#
#  For information on this file format, follow the CIF links at
#  http://www.iucr.org
##########################################################################

data_image0

_cell_length_a                          13.0911
_cell_length_b                          20.3529
_cell_length_c                          20.3529
_cell_angle_alpha                       64.4659
_cell_angle_beta                        77.6196
_cell_angle_gamma                       102.38
_symmetry_space_group_name_H-M          'P 1'
_symmetry_int_tables_number             1
loop_
  _symmetry_equiv_pos_as_xyz
         'x, y, z' 
loop_
  _atom_site_label
  _atom_site_occupancy
  _atom_site_fract_x
  _atom_site_fract_y
  _atom_site_fract_z
  _atom_site_thermal_displace_type
  _atom_site_B_iso_or_equiv
  _atom_site_type_symbol
  _atom_site_charge
         C1        1.0000    0.18336   0.27547   0.29019   Biso      1.000     C          0.235015  
         C2        1.0000    0.55883   0.81399   0.56340   Biso      1.000     C          0.232431  
         C3        1.0000    0.52645   0.70981   0.56566   Biso      1.000     C          0.23493899999999998           
         C4        1.0000    0.51300   0.63081   0.58101   Biso      1.000     C          0.17686500000000002           
         C5        1.0000    0.56580   0.58640   0.62030   Biso      1.000     C          -0.132589           
         C6        1.0000    0.54720   0.51150   0.62880   Biso      1.000     C          0.010672  
         C7        1.0000    0.47360   0.48690   0.60000   Biso      1.000     C          -0.135971           
         C8        1.0000    0.42370   0.53460   0.56100   Biso      1.000     C          0.088907  
         C9        1.0000    0.67276   0.43161   0.96793   Biso      1.000     C          0.184748  
         C10       1.0000    0.70484   0.54544   0.88202   Biso      1.000     C          0.254436  
         C11       1.0000    0.74484   0.62261   0.81399   Biso      1.000     C          0.232314  
         C12       1.0000    0.81664   0.72453   0.70981   Biso      1.000     C          0.23379499999999998           
         C13       1.0000    0.88219   0.78818   0.63081   Biso      1.000     C          0.178704  
         C14       1.0000    0.97940   0.79330   0.58640   Biso      1.000     C          -0.132766           
         C15       1.0000    0.98470   0.56100   0.90440   Biso      1.000     C          0.090779  
         C16       1.0000    0.07360   0.60000   0.91310   Biso      1.000     C          -0.13889200000000002          
         C17       1.0000    0.17600   0.62880   0.85970   Biso      1.000     C          0.013753  
         C18       1.0000    0.18610   0.62030   0.79330   Biso      1.000     C          -0.13241  
         C19       1.0000    0.09401   0.58101   0.78818   Biso      1.000     C          0.179785  
         C20       1.0000    0.09211   0.56566   0.72453   Biso      1.000     C          0.237233  
         C21       1.0000    0.12223   0.56340   0.62261   Biso      1.000     C          0.23199899999999998           
         C22       1.0000    0.15940   0.57254   0.54544   Biso      1.000     C          0.25308200000000003           
         C23       1.0000    0.24115   0.60046   0.43161   Biso      1.000     C          0.18702   
         C24       1.0000    0.88910   0.90440   0.53460   Biso      1.000     C          0.09041   
         C25       1.0000    0.58686   0.88202   0.57254   Biso      1.000     C          0.258887  
         C26       1.0000    0.64069   0.96793   0.60046   Biso      1.000     C          0.188102  
         C27       1.0000    0.01530   0.43900   0.09560   Biso      1.000     C          0.090549  
         C28       1.0000    0.92640   0.40000   0.08690   Biso      1.000     C          -0.139011           
         C29       1.0000    0.35931   0.03207   0.39954   Biso      1.000     C          0.188056  
         C30       1.0000    0.41314   0.11798   0.42746   Biso      1.000     C          0.25913   
         C31       1.0000    0.44117   0.18601   0.43660   Biso      1.000     C          0.232423  
         C32       1.0000    0.47355   0.29019   0.43434   Biso      1.000     C          0.23475900000000002           
         C33       1.0000    0.48700   0.36919   0.41899   Biso      1.000     C          0.177001  
         C34       1.0000    0.43420   0.41360   0.37970   Biso      1.000     C          -0.13256700000000002          
         C35       1.0000    0.45280   0.48850   0.37120   Biso      1.000     C          0.010709  
         C36       1.0000    0.52640   0.51310   0.40000   Biso      1.000     C          -0.135998           
         C37       1.0000    0.57630   0.46540   0.43900   Biso      1.000     C          0.088712  
         C38       1.0000    0.32724   0.56839   0.03207   Biso      1.000     C          0.184779  
         C39       1.0000    0.29516   0.45456   0.11798   Biso      1.000     C          0.25411500000000004           
         C40       1.0000    0.98670   0.91310   0.48690   Biso      1.000     C          -0.14044700000000002          
         C41       1.0000    0.25516   0.37739   0.18601   Biso      1.000     C          0.23353000000000002           
         C42       1.0000    0.02060   0.20670   0.41360   Biso      1.000     C          -0.132389           
         C43       1.0000    0.96430   0.14030   0.48850   Biso      1.000     C          0.015977  
         C44       1.0000    0.01330   0.08690   0.51310   Biso      1.000     C          -0.140371           
         C45       1.0000    0.11090   0.09560   0.46540   Biso      1.000     C          0.090498  
         C46       1.0000    0.75885   0.39954   0.56839   Biso      1.000     C          0.186695  
         C47       1.0000    0.84060   0.42746   0.45456   Biso      1.000     C          0.252614  
         C48       1.0000    0.87777   0.43660   0.37739   Biso      1.000     C          0.231737  
         C49       1.0000    0.90789   0.43434   0.27547   Biso      1.000     C          0.23741700000000002           
         C50       1.0000    0.90599   0.41899   0.21182   Biso      1.000     C          0.17957599999999999           
         C51       1.0000    0.81390   0.37970   0.20670   Biso      1.000     C          -0.13214800000000002          
         C52       1.0000    0.82400   0.37120   0.14030   Biso      1.000     C          0.014215  
         C53       1.0000    0.11781   0.21182   0.36919   Biso      1.000     C          0.17841700000000002           
         C54       1.0000    0.03570   0.85970   0.51150   Biso      1.000     C          0.015943000000000002          
         Cu1       1.0000    0.87148   0.48435   0.82700   Biso      1.000     Cu          0.717445  
         Cu2       1.0000    0.45800   0.38985   0.08840   Biso      1.000     Cu          0.688685  
         Cu3       1.0000    0.54640   0.08840   0.52175   Biso      1.000     Cu          0.6889649999999999  
         Cu4       1.0000    0.61287   0.31135   0.51565   Biso      1.000     Cu          0.7174699999999999  
         Cu5       1.0000    0.06815   0.52175   0.38985   Biso      1.000     Cu          0.6905279999999999  
         Cu6       1.0000    0.12852   0.51565   0.17300   Biso      1.000     Cu          0.7172    
         Cu7       1.0000    0.45360   0.91160   0.47825   Biso      1.000     Cu          0.689528  
         Cu8       1.0000    0.30152   0.17300   0.31135   Biso      1.000     Cu          0.7173039999999999  
         Cu9       1.0000    0.54200   0.61015   0.91160   Biso      1.000     Cu          0.689379  
         Cu10      1.0000    0.69848   0.82700   0.68865   Biso      1.000     Cu          0.7184590000000001  
         Cu11      1.0000    0.93185   0.47825   0.61015   Biso      1.000     Cu          0.690719  
         Cu12      1.0000    0.38713   0.68865   0.48435   Biso      1.000     Cu          0.718634  
         H1        1.0000    0.02000   0.95600   0.43710   Biso      1.000     H          0.127332  
         H2        1.0000    0.32670   0.00490   0.37810   Biso      1.000     H          0.12473800000000002           
         H3        1.0000    0.91490   0.54030   0.94280   Biso      1.000     H          0.089258  
         H4        1.0000    0.06400   0.60690   0.95600   Biso      1.000     H          0.12728699999999998           
         H5        1.0000    0.23840   0.65360   0.86620   Biso      1.000     H          0.122804  
         H6        1.0000    0.25490   0.64160   0.75400   Biso      1.000     H          0.152094  
         H7        1.0000    0.29520   0.62190   0.38300   Biso      1.000     H          0.12447899999999999           
         H8        1.0000    0.85770   0.94280   0.51690   Biso      1.000     H          0.08960599999999999           
         H9        1.0000    0.10460   0.86620   0.48020   Biso      1.000     H          0.121645  
         H10       1.0000    0.38670   0.39560   0.35840   Biso      1.000     H          0.15377000000000002           
         H11       1.0000    0.67820   0.38300   0.99510   Biso      1.000     H          0.12473   
         H12       1.0000    0.41520   0.51980   0.34640   Biso      1.000     H          0.124616  
         H13       1.0000    0.00890   0.75400   0.60440   Biso      1.000     H          0.152134  
         H14       1.0000    0.54290   0.56290   0.39310   Biso      1.000     H          0.126595  
         H15       1.0000    0.62540   0.48310   0.45970   Biso      1.000     H          0.090491  
         H16       1.0000    0.32180   0.61700   0.00490   Biso      1.000     H          0.12459200000000001           
         H17       1.0000    0.99110   0.24600   0.39560   Biso      1.000     H          0.152113  
         H18       1.0000    0.89540   0.13380   0.51980   Biso      1.000     H          0.12173599999999998           
         H19       1.0000    0.14230   0.05720   0.48310   Biso      1.000     H          0.089613  
         H20       1.0000    0.70480   0.37810   0.61700   Biso      1.000     H          0.124445  
         H21       1.0000    0.98000   0.04400   0.56290   Biso      1.000     H          0.127363  
         H22       1.0000    0.76160   0.34640   0.13380   Biso      1.000     H          0.123089  
         H23       1.0000    0.93600   0.39310   0.04400   Biso      1.000     H          0.12727   
         H24       1.0000    0.08510   0.45970   0.05720   Biso      1.000     H          0.089164  
         H25       1.0000    0.67330   0.99510   0.62190   Biso      1.000     H          0.12478099999999999           
         H26       1.0000    0.61330   0.60440   0.64160   Biso      1.000     H          0.153755  
         H27       1.0000    0.58480   0.48020   0.65360   Biso      1.000     H          0.124618  
         H28       1.0000    0.74510   0.35840   0.24600   Biso      1.000     H          0.15223   
         H29       1.0000    0.45710   0.43710   0.60690   Biso      1.000     H          0.126637  
         H30       1.0000    0.37460   0.51690   0.54030   Biso      1.000     H          0.09053   
         N1        1.0000    0.00695   0.44899   0.15764   Biso      1.000     N          -0.293206           
         N2        1.0000    0.74073   0.38782   0.51113   Biso      1.000     N          -0.32710500000000003          
         N3        1.0000    0.86249   0.44535   0.54778   Biso      1.000     N          -0.165398           
         N4        1.0000    0.91579   0.46259   0.47352   Biso      1.000     N          -0.258321           
         N5        1.0000    0.00286   0.47923   0.26885   Biso      1.000     N          -0.206139           
         N6        1.0000    0.98458   0.48112   0.33548   Biso      1.000     N          -0.215653           
         N7        1.0000    0.64709   0.89895   0.61218   Biso      1.000     N          -0.330629           
         N8        1.0000    0.16459   0.15764   0.39337   Biso      1.000     N          -0.29278000000000004          
         N9        1.0000    0.82424   0.40615   0.34313   Biso      1.000     N          -0.367314           
         N10       1.0000    0.27171   0.26885   0.25192   Biso      1.000     N          -0.20421  
         N11       1.0000    0.45320   0.06389   0.46259   Biso      1.000     N          -0.262096           
         N12       1.0000    0.16737   0.34313   0.25072   Biso      1.000     N          -0.367225           
         N13       1.0000    0.38931   0.47352   0.06389   Biso      1.000     N          -0.261982           
         N14       1.0000    0.41027   0.54778   0.00687   Biso      1.000     N          -0.161949           
         N15       1.0000    0.25186   0.51113   0.10105   Biso      1.000     N          -0.326278           
         N16       1.0000    0.55796   0.39337   0.44899   Biso      1.000     N          -0.29183600000000004          
         N17       1.0000    0.52363   0.25192   0.47923   Biso      1.000     N          -0.204675           
         N18       1.0000    0.50346   0.18340   0.48112   Biso      1.000     N          -0.21527800000000002          
         N19       1.0000    0.41809   0.25072   0.40615   Biso      1.000     N          -0.366624           
         N20       1.0000    0.41714   0.00687   0.44535   Biso      1.000     N          -0.164213           
         N21       1.0000    0.58286   0.99313   0.55465   Biso      1.000     N          -0.16408599999999998          
         N22       1.0000    0.35291   0.10105   0.38782   Biso      1.000     N          -0.330242           
         N23       1.0000    0.32006   0.33548   0.18340   Biso      1.000     N          -0.216196           
         N24       1.0000    0.54680   0.93611   0.53741   Biso      1.000     N          -0.26200100000000004          
         N25       1.0000    0.67994   0.66452   0.81660   Biso      1.000     N          -0.217542           
         N26       1.0000    0.49654   0.81660   0.51888   Biso      1.000     N          -0.215338           
         N27       1.0000    0.58191   0.74928   0.59385   Biso      1.000     N          -0.366661           
         N28       1.0000    0.99714   0.52077   0.73115   Biso      1.000     N          -0.20613099999999998          
         N29       1.0000    0.01542   0.51888   0.66452   Biso      1.000     N          -0.21594000000000002          
         N30       1.0000    0.17576   0.59385   0.65687   Biso      1.000     N          -0.367649           
         N31       1.0000    0.08421   0.53741   0.52648   Biso      1.000     N          -0.259315           
         N32       1.0000    0.13751   0.55465   0.45222   Biso      1.000     N          -0.165924           
         N33       1.0000    0.25927   0.61218   0.48887   Biso      1.000     N          -0.32918200000000003          
         N34       1.0000    0.99305   0.55101   0.84236   Biso      1.000     N          -0.293057           
         N35       1.0000    0.72829   0.73115   0.74808   Biso      1.000     N          -0.20545300000000002          
         N36       1.0000    0.83263   0.65687   0.74928   Biso      1.000     N          -0.366016           
         N37       1.0000    0.61069   0.52648   0.93611   Biso      1.000     N          -0.262366           
         N38       1.0000    0.58973   0.45222   0.99313   Biso      1.000     N          -0.16171  
         N39       1.0000    0.74814   0.48887   0.89895   Biso      1.000     N          -0.326479           
         N40       1.0000    0.44204   0.60663   0.55101   Biso      1.000     N          -0.292354           
         N41       1.0000    0.83541   0.84236   0.60663   Biso      1.000     N          -0.293129           
         N42       1.0000    0.47637   0.74808   0.52077   Biso      1.000     N          -0.204537           
         O1        1.0000    0.23260   0.84420   0.37680   Biso      1.000     O          -0.592278           
         O2        1.0000    0.37820   0.89029   0.41359   Biso      1.000     O          -0.646137           
         O3        1.0000    0.23316   0.59121   0.18343   Biso      1.000     O          -0.628223           
         O4        1.0000    0.26800   0.49200   0.28180   Biso      1.000     O          -0.696071           
         O5        1.0000    0.39060   0.62320   0.22100   Biso      1.000     O          -0.5926819999999999           
         O6        1.0000    0.61160   0.22100   0.15580   Biso      1.000     O          -0.595354           
         O7        1.0000    0.41659   0.18343   0.22536   Biso      1.000     O          -0.6296350000000001           
         O8        1.0000    0.54980   0.28180   0.22620   Biso      1.000     O          -0.6979390000000001           
         O9        1.0000    0.51209   0.30388   0.10971   Biso      1.000     O          -0.6469010000000001           
         O10       1.0000    0.64195   0.22536   0.59121   Biso      1.000     O          -0.628637           
         O11       1.0000    0.77600   0.22620   0.49200   Biso      1.000     O          -0.697839           
         O12       1.0000    0.22400   0.77380   0.50800   Biso      1.000     O          -0.697312           
         O13       1.0000    0.20821   0.58641   0.30388   Biso      1.000     O          -0.644785           
         O14       1.0000    0.35805   0.77464   0.40879   Biso      1.000     O          -0.6285270000000001           
         O15       1.0000    0.76684   0.40879   0.81657   Biso      1.000     O          -0.6278189999999999           
         O16       1.0000    0.38840   0.77900   0.84420   Biso      1.000     O          -0.588909           
         O17       1.0000    0.45020   0.71820   0.77380   Biso      1.000     O          -0.692547           
         O18       1.0000    0.58341   0.81657   0.77464   Biso      1.000     O          -0.631199           
         O19       1.0000    0.79179   0.41359   0.69612   Biso      1.000     O          -0.644841           
         O20       1.0000    0.60940   0.37680   0.77900   Biso      1.000     O          -0.592496           
         O21       1.0000    0.73200   0.50800   0.71820   Biso      1.000     O          -0.696044           
         O22       1.0000    0.76740   0.15580   0.62320   Biso      1.000     O          -0.592919           
         O23       1.0000    0.48791   0.69612   0.89029   Biso      1.000     O          -0.649777           
         O24       1.0000    0.62180   0.10971   0.58641   Biso      1.000     O          -0.646442           
         S1        1.0000    0.72130   0.42732   0.75332   Biso      1.000     S          1.450483  
         S2        1.0000    0.47462   0.75332   0.81936   Biso      1.000     S          1.454648  
         S3        1.0000    0.29398   0.81936   0.42732   Biso      1.000     S          1.45271   
         S4        1.0000    0.27870   0.57268   0.24668   Biso      1.000     S          1.450548  
         S5        1.0000    0.52538   0.24668   0.18064   Biso      1.000     S          1.455209  
         S6        1.0000    0.70602   0.18064   0.57268   Biso      1.000     S          1.452934 