
##########################################################################
#               Crystallographic Information Format file
#               Produced by PyCifRW module
#
#  This is a CIF file.  CIF has been adopted by the International
#  Union of Crystallography as the standard for data archiving and
#  transmission.
#
#  For information on this file format, follow the CIF links at
#  http://www.iucr.org
##########################################################################

data_image0

_cell_length_a                          19.4356
_cell_length_b                          19.4356
_cell_length_c                          27.893
_cell_angle_alpha                       90
_cell_angle_beta                        90
_cell_angle_gamma                       120
_symmetry_space_group_name_H-M          'P 1'
_symmetry_int_tables_number             1
loop_
  _symmetry_equiv_pos_as_xyz
         'x, y, z' 
loop_
  _atom_site_label
  _atom_site_occupancy
  _atom_site_fract_x
  _atom_site_fract_y
  _atom_site_fract_z
  _atom_site_thermal_displace_type
  _atom_site_B_iso_or_equiv
  _atom_site_type_symbol
  _atom_site_charge
         C1        1.0000    0.65142   0.83805   0.08751   Biso      1.000     C          -0.151542           
         C2        1.0000    0.23166   0.27691   0.03377   Biso      1.000     C          0.094875  
         C3        1.0000    0.16075   0.20630   0.03314   Biso      1.000     C          -0.218982           
         C4        1.0000    0.50730   0.29097   0.68060   Biso      1.000     C          0.642239  
         C5        1.0000    0.44941   0.27644   0.64187   Biso      1.000     C          -0.038732           
         C6        1.0000    0.40325   0.20115   0.62256   Biso      1.000     C          -0.092353           
         C7        1.0000    0.34858   0.18663   0.58751   Biso      1.000     C          -0.151534           
         C8        1.0000    0.33773   0.24649   0.57022   Biso      1.000     C          0.087783  
         C9        1.0000    0.38299   0.32210   0.58959   Biso      1.000     C          -0.153944           
         C10       1.0000    0.44045   0.33716   0.62406   Biso      1.000     C          -0.094776           
         C11       1.0000    0.27691   0.23166   0.53377   Biso      1.000     C          0.094874  
         C12       1.0000    0.20630   0.16075   0.53314   Biso      1.000     C          -0.218983           
         C13       1.0000    0.70903   0.21633   0.68060   Biso      1.000     C          0.642235  
         C14       1.0000    0.72356   0.17297   0.64187   Biso      1.000     C          -0.038732           
         C15       1.0000    0.79885   0.20210   0.62256   Biso      1.000     C          -0.092354           
         C16       1.0000    0.81337   0.16195   0.58751   Biso      1.000     C          -0.151534           
         C17       1.0000    0.75351   0.09124   0.57022   Biso      1.000     C          0.087783  
         C18       1.0000    0.67790   0.06089   0.58959   Biso      1.000     C          -0.153944           
         C19       1.0000    0.66284   0.10329   0.62406   Biso      1.000     C          -0.094776           
         C20       1.0000    0.76834   0.04525   0.53377   Biso      1.000     C          0.094874  
         C21       1.0000    0.83925   0.04555   0.53314   Biso      1.000     C          -0.218982           
         C22       1.0000    0.78367   0.49270   0.68060   Biso      1.000     C          0.64224   
         C23       1.0000    0.33716   0.44045   0.12406   Biso      1.000     C          -0.094783           
         C24       1.0000    0.32210   0.38299   0.08959   Biso      1.000     C          -0.153944           
         C25       1.0000    0.24649   0.33773   0.07022   Biso      1.000     C          0.087779  
         C26       1.0000    0.18663   0.34858   0.08751   Biso      1.000     C          -0.151538           
         C27       1.0000    0.16075   0.20630   0.46686   Biso      1.000     C          -0.218984           
         C28       1.0000    0.21633   0.70903   0.18060   Biso      1.000     C          0.642237  
         C29       1.0000    0.17297   0.72356   0.14187   Biso      1.000     C          -0.038733           
         C30       1.0000    0.20210   0.79885   0.12256   Biso      1.000     C          -0.092353           
         C31       1.0000    0.16195   0.81337   0.08751   Biso      1.000     C          -0.151534           
         C32       1.0000    0.09124   0.75351   0.07022   Biso      1.000     C          0.087783  
         C33       1.0000    0.06089   0.67790   0.08959   Biso      1.000     C          -0.153945           
         C34       1.0000    0.10329   0.66284   0.12406   Biso      1.000     C          -0.094777           
         C35       1.0000    0.04525   0.76834   0.03377   Biso      1.000     C          0.094874  
         C36       1.0000    0.04555   0.83925   0.03314   Biso      1.000     C          -0.218983           
         C37       1.0000    0.82703   0.55059   0.64187   Biso      1.000     C          -0.038734           
         C38       1.0000    0.49270   0.78367   0.18060   Biso      1.000     C          0.642233  
         C39       1.0000    0.59675   0.79790   0.12256   Biso      1.000     C          -0.092347           
         C40       1.0000    0.92966   0.92966   0.50000   Biso      1.000     C          -0.219311           
         C41       1.0000    0.66227   0.90876   0.07022   Biso      1.000     C          0.087783  
         C42       1.0000    0.61701   0.93911   0.08959   Biso      1.000     C          -0.153944           
         C43       1.0000    0.55955   0.89671   0.12406   Biso      1.000     C          -0.094782           
         C44       1.0000    0.72309   0.95475   0.03377   Biso      1.000     C          0.094874  
         C45       1.0000    0.79370   0.95445   0.03314   Biso      1.000     C          -0.218982           
         C46       1.0000    0.29097   0.50730   0.18060   Biso      1.000     C          0.642237  
         C47       1.0000    0.27644   0.44941   0.14187   Biso      1.000     C          -0.03873  
         C48       1.0000    0.20115   0.40325   0.12256   Biso      1.000     C          -0.092347           
         C49       1.0000    0.55059   0.82703   0.14187   Biso      1.000     C          -0.038726           
         C50       1.0000    0.23166   0.27691   0.46623   Biso      1.000     C          0.094876  
         C51       1.0000    0.79790   0.59675   0.62256   Biso      1.000     C          -0.092354           
         C52       1.0000    0.90876   0.66227   0.57022   Biso      1.000     C          0.087778  
         C53       1.0000    0.90876   0.66227   0.92978   Biso      1.000     C          0.087779  
         C54       1.0000    0.93911   0.61701   0.91041   Biso      1.000     C          -0.153943           
         C55       1.0000    0.89671   0.55955   0.87594   Biso      1.000     C          -0.094783           
         C56       1.0000    0.95475   0.72309   0.96623   Biso      1.000     C          0.094875  
         C57       1.0000    0.95445   0.79370   0.96686   Biso      1.000     C          -0.218982           
         C58       1.0000    0.00000   0.71007   0.50000   Biso      1.000     C          -0.220958           
         C59       1.0000    0.00000   0.85303   0.50000   Biso      1.000     C          0.095397  
         C60       1.0000    0.00000   0.92933   0.50000   Biso      1.000     C          0.101954  
         C61       1.0000    0.71007   0.00000   0.50000   Biso      1.000     C          -0.220958           
         C62       1.0000    0.85303   0.00000   0.50000   Biso      1.000     C          0.095397  
         C63       1.0000    0.92933   0.00000   0.50000   Biso      1.000     C          0.101954  
         C64       1.0000    0.28993   0.28993   0.50000   Biso      1.000     C          -0.220958           
         C65       1.0000    0.14697   0.14697   0.50000   Biso      1.000     C          0.095398  
         C66       1.0000    0.07067   0.07067   0.50000   Biso      1.000     C          0.101946  
         C67       1.0000    0.00000   0.71007   0.00000   Biso      1.000     C          -0.220958           
         C68       1.0000    0.00000   0.85303   0.00000   Biso      1.000     C          0.095398  
         C69       1.0000    0.00000   0.92933   0.00000   Biso      1.000     C          0.101946  
         C70       1.0000    0.71007   0.00000   0.00000   Biso      1.000     C          -0.220958           
         C71       1.0000    0.85303   0.00000   0.00000   Biso      1.000     C          0.095398  
         C72       1.0000    0.92933   0.00000   0.00000   Biso      1.000     C          0.101946  
         C73       1.0000    0.28993   0.28993   0.00000   Biso      1.000     C          -0.220958           
         C74       1.0000    0.83805   0.65142   0.91249   Biso      1.000     C          -0.151538           
         C75       1.0000    0.79790   0.59675   0.87744   Biso      1.000     C          -0.092348           
         C76       1.0000    0.82703   0.55059   0.85813   Biso      1.000     C          -0.038728           
         C77       1.0000    0.78367   0.49270   0.81940   Biso      1.000     C          0.642239  
         C78       1.0000    0.93911   0.61701   0.58959   Biso      1.000     C          -0.153944           
         C79       1.0000    0.89671   0.55955   0.62406   Biso      1.000     C          -0.094777           
         C80       1.0000    0.95475   0.72309   0.53377   Biso      1.000     C          0.094875  
         C81       1.0000    0.95445   0.79370   0.53314   Biso      1.000     C          -0.218982           
         C82       1.0000    0.50730   0.29097   0.81940   Biso      1.000     C          0.642239  
         C83       1.0000    0.44941   0.27644   0.85813   Biso      1.000     C          -0.038732           
         C84       1.0000    0.40325   0.20115   0.87744   Biso      1.000     C          -0.092353           
         C85       1.0000    0.34858   0.18663   0.91249   Biso      1.000     C          -0.151534           
         C86       1.0000    0.33773   0.24649   0.92978   Biso      1.000     C          0.087783  
         C87       1.0000    0.38299   0.32210   0.91041   Biso      1.000     C          -0.153944           
         C88       1.0000    0.83805   0.65142   0.58751   Biso      1.000     C          -0.15153  
         C89       1.0000    0.44045   0.33716   0.87594   Biso      1.000     C          -0.094776           
         C90       1.0000    0.20630   0.16075   0.96686   Biso      1.000     C          -0.218984           
         C91       1.0000    0.70903   0.21633   0.81940   Biso      1.000     C          0.642235  
         C92       1.0000    0.72356   0.17297   0.85813   Biso      1.000     C          -0.038732           
         C93       1.0000    0.79885   0.20210   0.87744   Biso      1.000     C          -0.092354           
         C94       1.0000    0.81337   0.16195   0.91249   Biso      1.000     C          -0.151534           
         C95       1.0000    0.75351   0.09124   0.92978   Biso      1.000     C          0.087783  
         C96       1.0000    0.67790   0.06089   0.91041   Biso      1.000     C          -0.153944           
         C97       1.0000    0.66284   0.10329   0.87594   Biso      1.000     C          -0.094776           
         C98       1.0000    0.76834   0.04525   0.96623   Biso      1.000     C          0.094874  
         C99       1.0000    0.83925   0.04555   0.96686   Biso      1.000     C          -0.218982           
         C100      1.0000    0.27691   0.23166   0.96623   Biso      1.000     C          0.094875  
         C101      1.0000    0.33716   0.44045   0.37594   Biso      1.000     C          -0.094783           
         C102      1.0000    0.32210   0.38299   0.41041   Biso      1.000     C          -0.153944           
         C103      1.0000    0.24649   0.33773   0.42978   Biso      1.000     C          0.087778  
         C104      1.0000    0.07034   0.00000   0.00000   Biso      1.000     C          -0.219303           
         C105      1.0000    0.00000   0.07034   0.00000   Biso      1.000     C          -0.219303           
         C106      1.0000    0.92966   0.92966   0.00000   Biso      1.000     C          -0.219294           
         C107      1.0000    0.07034   0.00000   0.50000   Biso      1.000     C          -0.219294           
         C108      1.0000    0.00000   0.07034   0.50000   Biso      1.000     C          -0.219295           
         C109      1.0000    0.14697   0.14697   0.00000   Biso      1.000     C          0.095397  
         C110      1.0000    0.21633   0.70903   0.31940   Biso      1.000     C          0.642237  
         C111      1.0000    0.17297   0.72356   0.35813   Biso      1.000     C          -0.038733           
         C112      1.0000    0.20210   0.79885   0.37744   Biso      1.000     C          -0.092353           
         C113      1.0000    0.16195   0.81337   0.41249   Biso      1.000     C          -0.151534           
         C114      1.0000    0.09124   0.75351   0.42978   Biso      1.000     C          0.087783  
         C115      1.0000    0.06089   0.67790   0.41041   Biso      1.000     C          -0.153945           
         C116      1.0000    0.10329   0.66284   0.37594   Biso      1.000     C          -0.094777           
         C117      1.0000    0.04525   0.76834   0.46623   Biso      1.000     C          0.094874  
         C118      1.0000    0.07067   0.07067   0.00000   Biso      1.000     C          0.101961  
         C119      1.0000    0.49270   0.78367   0.31940   Biso      1.000     C          0.642233  
         C120      1.0000    0.72309   0.95475   0.46623   Biso      1.000     C          0.094875  
         C121      1.0000    0.79370   0.95445   0.46686   Biso      1.000     C          -0.218982           
         C122      1.0000    0.29097   0.50730   0.31940   Biso      1.000     C          0.642237  
         C123      1.0000    0.27644   0.44941   0.35813   Biso      1.000     C          -0.038729           
         C124      1.0000    0.20115   0.40325   0.37744   Biso      1.000     C          -0.092355           
         C125      1.0000    0.18663   0.34858   0.41249   Biso      1.000     C          -0.15153  
         C126      1.0000    0.04555   0.83925   0.46686   Biso      1.000     C          -0.218983           
         C127      1.0000    0.61701   0.93911   0.41041   Biso      1.000     C          -0.153944           
         C128      1.0000    0.66227   0.90876   0.42978   Biso      1.000     C          0.08778   
         C129      1.0000    0.65142   0.83805   0.41249   Biso      1.000     C          -0.151538           
         C130      1.0000    0.59675   0.79790   0.37744   Biso      1.000     C          -0.092347           
         C131      1.0000    0.55059   0.82703   0.35813   Biso      1.000     C          -0.038732           
         C132      1.0000    0.55955   0.89671   0.37594   Biso      1.000     C          -0.094776           
         H1        1.0000    0.08430   0.61130   0.13510   Biso      1.000     H          0.117497  
         H2        1.0000    0.07660   0.87860   0.05520   Biso      1.000     H          0.121562  
         H3        1.0000    0.59030   0.75000   0.13370   Biso      1.000     H          0.114155  
         H4        1.0000    0.68160   0.81720   0.07520   Biso      1.000     H          0.114639  
         H5        1.0000    0.62530   0.98820   0.07940   Biso      1.000     H          0.116004  
         H6        1.0000    0.15970   0.40970   0.13370   Biso      1.000     H          0.114155  
         H7        1.0000    0.80200   0.92340   0.05520   Biso      1.000     H          0.121561  
         H8        1.0000    0.13560   0.31840   0.07520   Biso      1.000     H          0.114639  
         H9        1.0000    0.36290   0.37470   0.07940   Biso      1.000     H          0.116003  
         H10       1.0000    0.38870   0.47300   0.13510   Biso      1.000     H          0.117497  
         H11       1.0000    0.01180   0.63710   0.07940   Biso      1.000     H          0.116003  
         H12       1.0000    0.12140   0.19800   0.05520   Biso      1.000     H          0.121562  
         H13       1.0000    0.52700   0.91570   0.13510   Biso      1.000     H          0.117499  
         H14       1.0000    0.18280   0.86440   0.07520   Biso      1.000     H          0.114639  
         H15       1.0000    0.15970   0.40970   0.36630   Biso      1.000     H          0.114155  
         H16       1.0000    0.12140   0.19800   0.44480   Biso      1.000     H          0.121562  
         H17       1.0000    0.25000   0.84030   0.36630   Biso      1.000     H          0.114156  
         H18       1.0000    0.18280   0.86440   0.42480   Biso      1.000     H          0.114639  
         H19       1.0000    0.01180   0.63710   0.42060   Biso      1.000     H          0.116003  
         H20       1.0000    0.08430   0.61130   0.36490   Biso      1.000     H          0.117497  
         H21       1.0000    0.07660   0.87860   0.44480   Biso      1.000     H          0.121561  
         H22       1.0000    0.59030   0.75000   0.36630   Biso      1.000     H          0.114155  
         H23       1.0000    0.25000   0.84030   0.13370   Biso      1.000     H          0.114156  
         H24       1.0000    0.68160   0.81720   0.42480   Biso      1.000     H          0.114639  
         H25       1.0000    0.52700   0.91570   0.36490   Biso      1.000     H          0.117498  
         H26       1.0000    0.80200   0.92340   0.44480   Biso      1.000     H          0.121561  
         H27       1.0000    0.40970   0.15970   0.63370   Biso      1.000     H          0.114156  
         H28       1.0000    0.13560   0.31840   0.42480   Biso      1.000     H          0.114638  
         H29       1.0000    0.36290   0.37470   0.42060   Biso      1.000     H          0.116003  
         H30       1.0000    0.38870   0.47300   0.36490   Biso      1.000     H          0.117497  
         H31       1.0000    0.62530   0.98820   0.42060   Biso      1.000     H          0.116004  
         H32       1.0000    0.31840   0.13560   0.57520   Biso      1.000     H          0.114639  
         H33       1.0000    0.86440   0.18280   0.57520   Biso      1.000     H          0.114639  
         H34       1.0000    0.47300   0.38870   0.63510   Biso      1.000     H          0.117497  
         H35       1.0000    0.81720   0.68160   0.92480   Biso      1.000     H          0.114639  
         H36       1.0000    0.98820   0.62530   0.92060   Biso      1.000     H          0.116003  
         H37       1.0000    0.91570   0.52700   0.86490   Biso      1.000     H          0.117498  
         H38       1.0000    0.92340   0.80200   0.94480   Biso      1.000     H          0.121561  
         H39       1.0000    0.00000   0.66220   0.50000   Biso      1.000     H          0.119168  
         H40       1.0000    0.66220   0.00000   0.50000   Biso      1.000     H          0.119168  
         H41       1.0000    0.33780   0.33780   0.50000   Biso      1.000     H          0.119168  
         H42       1.0000    0.75000   0.59030   0.86630   Biso      1.000     H          0.114155  
         H43       1.0000    0.00000   0.66220   0.00000   Biso      1.000     H          0.119168  
         H44       1.0000    0.33780   0.33780   0.00000   Biso      1.000     H          0.119168  
         H45       1.0000    0.88180   0.88180   0.50000   Biso      1.000     H          0.121973  
         H46       1.0000    0.00000   0.11820   0.50000   Biso      1.000     H          0.121972  
         H47       1.0000    0.11820   0.00000   0.50000   Biso      1.000     H          0.121972  
         H48       1.0000    0.88180   0.88180   0.00000   Biso      1.000     H          0.121972  
         H49       1.0000    0.00000   0.11820   0.00000   Biso      1.000     H          0.121973  
         H50       1.0000    0.11820   0.00000   0.00000   Biso      1.000     H          0.121973  
         H51       1.0000    0.66220   0.00000   0.00000   Biso      1.000     H          0.119168  
         H52       1.0000    0.37470   0.36290   0.57940   Biso      1.000     H          0.116003  
         H53       1.0000    0.87860   0.07660   0.94480   Biso      1.000     H          0.121561  
         H54       1.0000    0.63710   0.01180   0.92060   Biso      1.000     H          0.116004  
         H55       1.0000    0.19800   0.12140   0.55520   Biso      1.000     H          0.121561  
         H56       1.0000    0.84030   0.25000   0.63370   Biso      1.000     H          0.114156  
         H57       1.0000    0.63710   0.01180   0.57940   Biso      1.000     H          0.116004  
         H58       1.0000    0.61130   0.08430   0.63510   Biso      1.000     H          0.117498  
         H59       1.0000    0.87860   0.07660   0.55520   Biso      1.000     H          0.121561  
         H60       1.0000    0.75000   0.59030   0.63370   Biso      1.000     H          0.114155  
         H61       1.0000    0.81720   0.68160   0.57520   Biso      1.000     H          0.114638  
         H62       1.0000    0.61130   0.08430   0.86490   Biso      1.000     H          0.117498  
         H63       1.0000    0.98820   0.62530   0.57940   Biso      1.000     H          0.116003  
         H64       1.0000    0.40970   0.15970   0.86630   Biso      1.000     H          0.114156  
         H65       1.0000    0.31840   0.13560   0.92480   Biso      1.000     H          0.114639  
         H66       1.0000    0.37470   0.36290   0.92060   Biso      1.000     H          0.116003  
         H67       1.0000    0.47300   0.38870   0.86490   Biso      1.000     H          0.117497  
         H68       1.0000    0.19800   0.12140   0.94480   Biso      1.000     H          0.121562  
         H69       1.0000    0.84030   0.25000   0.86630   Biso      1.000     H          0.114156  
         H70       1.0000    0.86440   0.18280   0.92480   Biso      1.000     H          0.114639  
         H71       1.0000    0.91570   0.52700   0.63510   Biso      1.000     H          0.117497  
         H72       1.0000    0.92340   0.80200   0.55520   Biso      1.000     H          0.121561  
         In1       1.0000    0.36401   0.78283   0.25000   Biso      1.000     In          1.368463  
         In2       1.0000    0.63599   0.41882   0.75000   Biso      1.000     In          1.368541  
         In3       1.0000    0.78283   0.36401   0.75000   Biso      1.000     In          1.368486  
         In4       1.0000    0.58118   0.21717   0.75000   Biso      1.000     In          1.368455  
         In5       1.0000    0.21717   0.58118   0.25000   Biso      1.000     In          1.368556  
         In6       1.0000    0.41882   0.63599   0.25000   Biso      1.000     In          1.368504  
         O1        1.0000    0.76714   0.27891   0.69530   Biso      1.000     O          -0.584388           
         O2        1.0000    0.63933   0.18579   0.69541   Biso      1.000     O          -0.586011           
         O3        1.0000    0.72109   0.48823   0.69530   Biso      1.000     O          -0.584399           
         O4        1.0000    0.81421   0.45354   0.69541   Biso      1.000     O          -0.58601  
         O5        1.0000    0.51177   0.23286   0.80470   Biso      1.000     O          -0.584387           
         O6        1.0000    0.76714   0.27891   0.80470   Biso      1.000     O          -0.584388           
         O7        1.0000    0.54646   0.36067   0.69541   Biso      1.000     O          -0.586023           
         O8        1.0000    0.63933   0.18579   0.80459   Biso      1.000     O          -0.586011           
         O9        1.0000    0.72109   0.48823   0.80470   Biso      1.000     O          -0.584399           
         O10       1.0000    0.81421   0.45354   0.80459   Biso      1.000     O          -0.58601  
         O11       1.0000    0.54646   0.36067   0.80459   Biso      1.000     O          -0.586023           
         O12       1.0000    0.51177   0.23286   0.69530   Biso      1.000     O          -0.584387           
         O13       1.0000    0.23286   0.51177   0.19530   Biso      1.000     O          -0.584398           
         O14       1.0000    0.33333   0.66666   0.25000   Biso      1.000     O          -1.028331           
         O15       1.0000    0.45354   0.81421   0.19541   Biso      1.000     O          -0.586011           
         O16       1.0000    0.48823   0.72109   0.19530   Biso      1.000     O          -0.584389           
         O17       1.0000    0.18579   0.63933   0.19541   Biso      1.000     O          -0.586022           
         O18       1.0000    0.27891   0.76714   0.19530   Biso      1.000     O          -0.584387           
         O19       1.0000    0.36067   0.54646   0.30459   Biso      1.000     O          -0.58601  
         O20       1.0000    0.23286   0.51177   0.30470   Biso      1.000     O          -0.584398           
         O21       1.0000    0.45354   0.81421   0.30459   Biso      1.000     O          -0.586011           
         O22       1.0000    0.48823   0.72109   0.30470   Biso      1.000     O          -0.584388           
         O23       1.0000    0.18579   0.63933   0.30459   Biso      1.000     O          -0.586022           
         O24       1.0000    0.27891   0.76714   0.30470   Biso      1.000     O          -0.584387           
         O25       1.0000    0.36067   0.54646   0.19541   Biso      1.000     O          -0.58601  
         O26       1.0000    0.66667   0.33334   0.75000   Biso      1.000     O          -1.028307 