
##########################################################################
#               Crystallographic Information Format file
#               Produced by PyCifRW module
#
#  This is a CIF file.  CIF has been adopted by the International
#  Union of Crystallography as the standard for data archiving and
#  transmission.
#
#  For information on this file format, follow the CIF links at
#  http://www.iucr.org
##########################################################################

data_image0

_cell_length_a                          4.7611
_cell_length_b                          17.6665
_cell_length_c                          17.6665
_cell_angle_alpha                       88.9596
_cell_angle_beta                        82.2559
_cell_angle_gamma                       82.2558
_symmetry_space_group_name_H-M          'P 1'
_symmetry_int_tables_number             1
loop_
  _symmetry_equiv_pos_as_xyz
         'x, y, z' 
loop_
  _atom_site_label
  _atom_site_occupancy
  _atom_site_fract_x
  _atom_site_fract_y
  _atom_site_fract_z
  _atom_site_thermal_displace_type
  _atom_site_B_iso_or_equiv
  _atom_site_type_symbol
  _atom_site_charge
         C1        1.0000    0.56025   0.87667   0.94683   Biso      1.000     C          0.631126  
         C2        1.0000    0.98610   0.47456   0.55644   Biso      1.000     C          -0.131637           
         C3        1.0000    0.13697   0.48112   0.62494   Biso      1.000     C          0.593694  
         C4        1.0000    0.43975   0.12333   0.05317   Biso      1.000     C          0.631126  
         C5        1.0000    0.59950   0.04817   0.02183   Biso      1.000     C          -0.140286           
         C6        1.0000    0.51710   0.02544   0.94356   Biso      1.000     C          -0.131384           
         C7        1.0000    0.74303   0.01888   0.87506   Biso      1.000     C          0.591637  
         C8        1.0000    0.61809   0.12494   0.51888   Biso      1.000     C          0.594191  
         C9        1.0000    0.46066   0.05644   0.52544   Biso      1.000     C          -0.13113  
         C10       1.0000    0.62133   0.97817   0.54817   Biso      1.000     C          -0.139654           
         C11       1.0000    0.49292   0.94683   0.62333   Biso      1.000     C          0.632461  
         C12       1.0000    0.76191   0.37506   0.98112   Biso      1.000     C          0.591435  
         C13       1.0000    0.54254   0.44356   0.97456   Biso      1.000     C          -0.130789           
         C14       1.0000    0.64767   0.52183   0.95183   Biso      1.000     C          -0.139929           
         C15       1.0000    0.56308   0.55317   0.87667   Biso      1.000     C          0.633103  
         C16       1.0000    0.25697   0.98112   0.12494   Biso      1.000     C          0.591637  
         C17       1.0000    0.48290   0.97456   0.05644   Biso      1.000     C          -0.131383           
         C18       1.0000    0.40050   0.95183   0.97817   Biso      1.000     C          -0.140287           
         C19       1.0000    0.86303   0.51888   0.37506   Biso      1.000     C          0.593696  
         C20       1.0000    0.01390   0.52544   0.44356   Biso      1.000     C          -0.131636           
         C21       1.0000    0.83050   0.54817   0.52183   Biso      1.000     C          -0.140228           
         C22       1.0000    0.88375   0.62333   0.55317   Biso      1.000     C          0.631036  
         C23       1.0000    0.38191   0.87506   0.48112   Biso      1.000     C          0.594191  
         C24       1.0000    0.53934   0.94356   0.47456   Biso      1.000     C          -0.13113  
         C25       1.0000    0.37867   0.02183   0.45183   Biso      1.000     C          -0.139655           
         C26       1.0000    0.50708   0.05317   0.37667   Biso      1.000     C          0.63246   
         C27       1.0000    0.23809   0.62494   0.01888   Biso      1.000     C          0.591437  
         C28       1.0000    0.45746   0.55644   0.02544   Biso      1.000     C          -0.130788           
         C29       1.0000    0.35233   0.47817   0.04817   Biso      1.000     C          -0.139929           
         C30       1.0000    0.43692   0.44683   0.12333   Biso      1.000     C          0.633102  
         C31       1.0000    0.16950   0.45183   0.47817   Biso      1.000     C          -0.140227           
         C32       1.0000    0.11625   0.37667   0.44683   Biso      1.000     C          0.631037  
         Cu1       1.0000    0.97273   0.96421   0.73265   Biso      1.000     Cu          0.835099  
         Cu2       1.0000    0.83041   0.46421   0.23265   Biso      1.000     Cu          0.834594  
         Cu3       1.0000    0.16959   0.53579   0.76735   Biso      1.000     Cu          0.834592  
         Cu4       1.0000    0.70539   0.26734   0.46421   Biso      1.000     Cu          0.835555  
         Cu5       1.0000    0.93693   0.23266   0.03579   Biso      1.000     Cu          0.834758  
         Cu6       1.0000    0.02727   0.03579   0.26735   Biso      1.000     Cu          0.835101  
         Cu7       1.0000    0.29461   0.73266   0.53579   Biso      1.000     Cu          0.835555  
         Cu8       1.0000    0.06307   0.76734   0.96421   Biso      1.000     Cu          0.834762  
         H1        1.0000    0.15140   0.47340   0.04700   Biso      1.000     H          0.116994  
         H2        1.0000    0.35300   0.06300   0.92860   Biso      1.000     H          0.13826   
         H3        1.0000    0.80160   0.04700   0.02660   Biso      1.000     H          0.117219  
         H4        1.0000    0.84460   0.43700   0.57140   Biso      1.000     H          0.138232  
         H5        1.0000    0.37520   0.45300   0.47340   Biso      1.000     H          0.117565  
         H6        1.0000    0.58400   0.57140   0.06300   Biso      1.000     H          0.137673  
         H7        1.0000    0.62480   0.54700   0.52660   Biso      1.000     H          0.117565  
         H8        1.0000    0.82820   0.97340   0.54700   Biso      1.000     H          0.116939  
         H9        1.0000    0.41600   0.42860   0.93700   Biso      1.000     H          0.137674  
         H10       1.0000    0.84860   0.52660   0.95300   Biso      1.000     H          0.116994  
         H11       1.0000    0.64700   0.93700   0.07140   Biso      1.000     H          0.138259  
         H12       1.0000    0.17180   0.02660   0.45300   Biso      1.000     H          0.116938  
         H13       1.0000    0.19840   0.95300   0.97340   Biso      1.000     H          0.117219  
         H14       1.0000    0.15540   0.56300   0.42860   Biso      1.000     H          0.138231  
         H15       1.0000    0.71840   0.92860   0.43700   Biso      1.000     H          0.137756  
         H16       1.0000    0.28160   0.07140   0.56300   Biso      1.000     H          0.137757  
         O1        1.0000    0.63880   0.56256   0.36784   Biso      1.000     O          -0.477    
         O2        1.0000    0.31537   0.67443   0.96983   Biso      1.000     O          -0.523041           
         O3        1.0000    0.44403   0.83428   0.90726   Biso      1.000     O          -0.496911           
         O4        1.0000    0.98980   0.46983   0.32557   Biso      1.000     O          -0.524451           
         O5        1.0000    0.28520   0.03017   0.17443   Biso      1.000     O          -0.523346           
         O6        1.0000    0.81126   0.86141   0.96467   Biso      1.000     O          -0.54477  
         O7        1.0000    0.68557   0.66572   0.59274   Biso      1.000     O          -0.497407           
         O8        1.0000    0.35129   0.09274   0.33428   Biso      1.000     O          -0.498342           
         O9        1.0000    0.20136   0.86784   0.43744   Biso      1.000     O          -0.478041           
         O10       1.0000    0.45963   0.82557   0.53017   Biso      1.000     O          -0.524536           
         O11       1.0000    0.77593   0.03533   0.36141   Biso      1.000     O          -0.545212           
         O12       1.0000    0.00664   0.63216   0.06256   Biso      1.000     O          -0.476435           
         O13       1.0000    0.06920   0.93744   0.13216   Biso      1.000     O          -0.476607           
         O14       1.0000    0.13734   0.63859   0.53533   Biso      1.000     O          -0.544693           
         O15       1.0000    0.32733   0.53533   0.86141   Biso      1.000     O          -0.545378           
         O16       1.0000    0.36120   0.43744   0.63216   Biso      1.000     O          -0.476996           
         O17       1.0000    0.68463   0.32557   0.03017   Biso      1.000     O          -0.523039           
         O18       1.0000    0.99336   0.36784   0.93744   Biso      1.000     O          -0.476432           
         O19       1.0000    0.22407   0.96467   0.63859   Biso      1.000     O          -0.54521  
         O20       1.0000    0.64871   0.90726   0.66572   Biso      1.000     O          -0.498343           
         O21       1.0000    0.54037   0.17443   0.46983   Biso      1.000     O          -0.524536           
         O22       1.0000    0.79864   0.13216   0.56256   Biso      1.000     O          -0.478042           
         O23       1.0000    0.86266   0.36141   0.46467   Biso      1.000     O          -0.544691           
         O24       1.0000    0.31443   0.33428   0.40726   Biso      1.000     O          -0.497407           
         O25       1.0000    0.01020   0.53017   0.67443   Biso      1.000     O          -0.524449           
         O26       1.0000    0.18874   0.13859   0.03533   Biso      1.000     O          -0.544768           
         O27       1.0000    0.55597   0.16572   0.09274   Biso      1.000     O          -0.496908           
         O28       1.0000    0.71480   0.96983   0.82557   Biso      1.000     O          -0.523344           
         O29       1.0000    0.93080   0.06256   0.86784   Biso      1.000     O          -0.476606           
         O30       1.0000    0.27831   0.40726   0.16572   Biso      1.000     O          -0.498134           
         O31       1.0000    0.72169   0.59274   0.83428   Biso      1.000     O          -0.498135           
         O32       1.0000    0.67267   0.46467   0.13859   Biso      1.000     O          -0.545379 