
##########################################################################
#               Crystallographic Information Format file
#               Produced by PyCifRW module
#
#  This is a CIF file.  CIF has been adopted by the International
#  Union of Crystallography as the standard for data archiving and
#  transmission.
#
#  For information on this file format, follow the CIF links at
#  http://www.iucr.org
##########################################################################

data_image0

_cell_length_a                          13.1261
_cell_length_b                          17.1315
_cell_length_c                          17.1315
_cell_angle_alpha                       81.5605
_cell_angle_beta                        67.4742
_cell_angle_gamma                       67.4743
_symmetry_space_group_name_H-M          'P 1'
_symmetry_int_tables_number             1
loop_
  _symmetry_equiv_pos_as_xyz
         'x, y, z' 
loop_
  _atom_site_label
  _atom_site_occupancy
  _atom_site_fract_x
  _atom_site_fract_y
  _atom_site_fract_z
  _atom_site_thermal_displace_type
  _atom_site_B_iso_or_equiv
  _atom_site_type_symbol
  _atom_site_charge
         C1        1.0000    0.67450   0.05530   0.55850   Biso      1.000     C          -0.199826           
         C2        1.0000    0.77020   0.05530   0.94150   Biso      1.000     C          -0.200273           
         C3        1.0000    0.99380   0.11950   0.59830   Biso      1.000     C          0.237363  
         C4        1.0000    0.99960   0.05910   0.54730   Biso      1.000     C          -0.054616           
         C5        1.0000    0.10250   0.13430   0.58890   Biso      1.000     C          -0.281129           
         C6        1.0000    0.21170   0.05850   0.55530   Biso      1.000     C          -0.197881           
         C7        1.0000    0.21160   0.38050   0.90170   Biso      1.000     C          0.23619   
         C8        1.0000    0.10600   0.44090   0.95270   Biso      1.000     C          -0.053003           
         C9        1.0000    0.73680   0.08890   0.86570   Biso      1.000     C          -0.276095           
         C10       1.0000    0.32570   0.36570   0.91110   Biso      1.000     C          -0.277683           
         C11       1.0000    0.61330   0.88050   0.09830   Biso      1.000     C          0.235725  
         C12       1.0000    0.55870   0.94090   0.04730   Biso      1.000     C          -0.053986           
         C13       1.0000    0.73680   0.86570   0.08890   Biso      1.000     C          -0.276088           
         C14       1.0000    0.77020   0.94150   0.05530   Biso      1.000     C          -0.200273           
         C15       1.0000    0.09210   0.61950   0.40170   Biso      1.000     C          0.236003  
         C16       1.0000    0.04690   0.55910   0.45270   Biso      1.000     C          -0.053178           
         C17       1.0000    0.19140   0.63430   0.41110   Biso      1.000     C          -0.280171           
         C18       1.0000    0.32550   0.44150   0.94470   Biso      1.000     C          -0.199824           
         C19       1.0000    0.26700   0.55850   0.44470   Biso      1.000     C          -0.199641           
         C20       1.0000    0.55870   0.04730   0.94090   Biso      1.000     C          -0.053987           
         C21       1.0000    0.26700   0.44470   0.55850   Biso      1.000     C          -0.199652           
         C22       1.0000    0.26320   0.13430   0.91110   Biso      1.000     C          -0.276089           
         C23       1.0000    0.22980   0.05850   0.94470   Biso      1.000     C          -0.200274           
         C24       1.0000    0.90790   0.38050   0.59830   Biso      1.000     C          0.236003  
         C25       1.0000    0.95310   0.44090   0.54730   Biso      1.000     C          -0.053178           
         C26       1.0000    0.80860   0.36570   0.58890   Biso      1.000     C          -0.280172           
         C27       1.0000    0.73300   0.44150   0.55530   Biso      1.000     C          -0.199642           
         C28       1.0000    0.78840   0.09830   0.61950   Biso      1.000     C          0.236193  
         C29       1.0000    0.61330   0.09830   0.88050   Biso      1.000     C          0.235728  
         C30       1.0000    0.89400   0.04730   0.55910   Biso      1.000     C          -0.05302  
         C31       1.0000    0.00620   0.40170   0.88050   Biso      1.000     C          0.237368  
         C32       1.0000    0.00040   0.45270   0.94090   Biso      1.000     C          -0.054639           
         C33       1.0000    0.89750   0.41110   0.86570   Biso      1.000     C          -0.28114  
         C34       1.0000    0.78830   0.44470   0.94150   Biso      1.000     C          -0.197845           
         C35       1.0000    0.09210   0.40170   0.61950   Biso      1.000     C          0.236007  
         C36       1.0000    0.04690   0.45270   0.55910   Biso      1.000     C          -0.053194           
         C37       1.0000    0.19140   0.41110   0.63430   Biso      1.000     C          -0.280171           
         C38       1.0000    0.67430   0.08890   0.63430   Biso      1.000     C          -0.277681           
         C39       1.0000    0.21160   0.90170   0.38050   Biso      1.000     C          0.236194  
         C40       1.0000    0.10600   0.95270   0.44090   Biso      1.000     C          -0.053021           
         C41       1.0000    0.32570   0.91110   0.36570   Biso      1.000     C          -0.277681           
         C42       1.0000    0.38070   0.01150   0.01150   Biso      1.000     C          0.047667  
         C43       1.0000    0.25670   0.02280   0.02280   Biso      1.000     C          -0.016451           
         C44       1.0000    0.90370   0.48850   0.48850   Biso      1.000     C          0.047429  
         C45       1.0000    0.80230   0.47720   0.47720   Biso      1.000     C          -0.016673           
         C46       1.0000    0.89220   0.98850   0.51150   Biso      1.000     C          0.046556  
         C47       1.0000    0.77950   0.97720   0.52280   Biso      1.000     C          -0.016097           
         C48       1.0000    0.89220   0.51150   0.98850   Biso      1.000     C          0.046566  
         C49       1.0000    0.67450   0.55850   0.05530   Biso      1.000     C          -0.199823           
         C50       1.0000    0.77950   0.52280   0.97720   Biso      1.000     C          -0.016106           
         C51       1.0000    0.19770   0.52280   0.52280   Biso      1.000     C          -0.016674           
         C52       1.0000    0.61930   0.98850   0.98850   Biso      1.000     C          0.047667  
         C53       1.0000    0.74330   0.97720   0.97720   Biso      1.000     C          -0.016451           
         C54       1.0000    0.10780   0.01150   0.48850   Biso      1.000     C          0.046557  
         C55       1.0000    0.22050   0.02280   0.47720   Biso      1.000     C          -0.016096           
         C56       1.0000    0.10780   0.48850   0.01150   Biso      1.000     C          0.046566  
         C57       1.0000    0.22050   0.47720   0.02280   Biso      1.000     C          -0.016106           
         C58       1.0000    0.09630   0.51150   0.51150   Biso      1.000     C          0.047428  
         C59       1.0000    0.67430   0.63430   0.08890   Biso      1.000     C          -0.277683           
         C60       1.0000    0.89400   0.55910   0.04730   Biso      1.000     C          -0.053004           
         C61       1.0000    0.78840   0.61950   0.09830   Biso      1.000     C          0.236191  
         C62       1.0000    0.32550   0.94470   0.44150   Biso      1.000     C          -0.199825           
         C63       1.0000    0.99380   0.59830   0.11950   Biso      1.000     C          0.237369  
         C64       1.0000    0.99960   0.54730   0.05910   Biso      1.000     C          -0.05464  
         C65       1.0000    0.10250   0.58890   0.13430   Biso      1.000     C          -0.28114  
         C66       1.0000    0.21170   0.55530   0.05850   Biso      1.000     C          -0.197844           
         C67       1.0000    0.90790   0.59830   0.38050   Biso      1.000     C          0.236008  
         C68       1.0000    0.95310   0.54730   0.44090   Biso      1.000     C          -0.053195           
         C69       1.0000    0.80860   0.58890   0.36570   Biso      1.000     C          -0.280171           
         C70       1.0000    0.73300   0.55530   0.44150   Biso      1.000     C          -0.199651           
         C71       1.0000    0.38670   0.90170   0.11950   Biso      1.000     C          0.235728  
         C72       1.0000    0.44130   0.95270   0.05910   Biso      1.000     C          -0.053987           
         C73       1.0000    0.26320   0.91110   0.13430   Biso      1.000     C          -0.276094           
         C74       1.0000    0.22980   0.94470   0.05850   Biso      1.000     C          -0.200272           
         C75       1.0000    0.00620   0.88050   0.40170   Biso      1.000     C          0.237363  
         C76       1.0000    0.00040   0.94090   0.45270   Biso      1.000     C          -0.054617           
         C77       1.0000    0.89750   0.86570   0.41110   Biso      1.000     C          -0.281128           
         C78       1.0000    0.78830   0.94150   0.44470   Biso      1.000     C          -0.19788  
         C79       1.0000    0.44130   0.05910   0.95270   Biso      1.000     C          -0.053986           
         C80       1.0000    0.38670   0.11950   0.90170   Biso      1.000     C          0.235726  
         Cu1       1.0000    0.36695   0.25000   0.76610   Biso      1.000     Cu          0.245685  
         Cu2       1.0000    0.88305   0.25000   0.73390   Biso      1.000     Cu          0.246347  
         Cu3       1.0000    0.63305   0.23390   0.75000   Biso      1.000     Cu          0.245689  
         Cu4       1.0000    0.11695   0.26610   0.75000   Biso      1.000     Cu          0.246333  
         Cu5       1.0000    0.63305   0.75000   0.23390   Biso      1.000     Cu          0.245687  
         Cu6       1.0000    0.11695   0.75000   0.26610   Biso      1.000     Cu          0.246342  
         Cu7       1.0000    0.36695   0.76610   0.25000   Biso      1.000     Cu          0.245693  
         Cu8       1.0000    0.88305   0.73390   0.25000   Biso      1.000     Cu          0.24634   
         H1        1.0000    0.22710   0.06510   0.43490   Biso      1.000     H          0.085149  
         H2        1.0000    0.24030   0.35650   0.64590   Biso      1.000     H          0.119575  
         H3        1.0000    0.31410   0.40240   0.51600   Biso      1.000     H          0.112559  
         H4        1.0000    0.32020   0.45860   0.57500   Biso      1.000     H          0.117556  
         H5        1.0000    0.22710   0.43490   0.06510   Biso      1.000     H          0.085151  
         H6        1.0000    0.74270   0.14350   0.85410   Biso      1.000     H          0.118537  
         H7        1.0000    0.73250   0.09760   0.98400   Biso      1.000     H          0.113082  
         H8        1.0000    0.21650   0.01600   0.59760   Biso      1.000     H          0.112676  
         H9        1.0000    0.10730   0.18250   0.55430   Biso      1.000     H          0.136684  
         H10       1.0000    0.09680   0.14590   0.64350   Biso      1.000     H          0.119864  
         H11       1.0000    0.16160   0.44570   0.68250   Biso      1.000     H          0.136326  
         H12       1.0000    0.27880   0.07500   0.54140   Biso      1.000     H          0.116115  
         H13       1.0000    0.34410   0.31750   0.94570   Biso      1.000     H          0.135149  
         H14       1.0000    0.38620   0.35410   0.85650   Biso      1.000     H          0.11936   
         H15       1.0000    0.85380   0.04140   0.92500   Biso      1.000     H          0.116031  
         H16       1.0000    0.72120   0.45860   0.92500   Biso      1.000     H          0.11611   
         H17       1.0000    0.60480   0.04140   0.57500   Biso      1.000     H          0.116068  
         H18       1.0000    0.90320   0.35650   0.85410   Biso      1.000     H          0.119862  
         H19       1.0000    0.89270   0.44570   0.81750   Biso      1.000     H          0.136681  
         H20       1.0000    0.33010   0.48400   0.90240   Biso      1.000     H          0.113528  
         H21       1.0000    0.66990   0.09760   0.51600   Biso      1.000     H          0.11353   
         H22       1.0000    0.61380   0.14350   0.64590   Biso      1.000     H          0.119361  
         H23       1.0000    0.65590   0.05430   0.68250   Biso      1.000     H          0.135148  
         H24       1.0000    0.67980   0.42500   0.54140   Biso      1.000     H          0.117556  
         H25       1.0000    0.68590   0.48400   0.59760   Biso      1.000     H          0.112557  
         H26       1.0000    0.75970   0.35410   0.64350   Biso      1.000     H          0.119574  
         H27       1.0000    0.83840   0.31750   0.55430   Biso      1.000     H          0.136324  
         H28       1.0000    0.14620   0.07500   0.95860   Biso      1.000     H          0.11603   
         H29       1.0000    0.26750   0.01600   0.90240   Biso      1.000     H          0.113082  
         H30       1.0000    0.25730   0.14590   0.85650   Biso      1.000     H          0.118537  
         H31       1.0000    0.21020   0.18250   0.94570   Biso      1.000     H          0.135787  
         H32       1.0000    0.78350   0.40240   0.98400   Biso      1.000     H          0.112671  
         H33       1.0000    0.39520   0.42500   0.95860   Biso      1.000     H          0.116069  
         H34       1.0000    0.78980   0.05430   0.81750   Biso      1.000     H          0.135787  
         H35       1.0000    0.74270   0.85410   0.14350   Biso      1.000     H          0.118537  
         H36       1.0000    0.26750   0.90240   0.01600   Biso      1.000     H          0.113081  
         H37       1.0000    0.14620   0.95860   0.07500   Biso      1.000     H          0.116031  
         H38       1.0000    0.89270   0.81750   0.44570   Biso      1.000     H          0.136684  
         H39       1.0000    0.90320   0.85410   0.35650   Biso      1.000     H          0.119864  
         H40       1.0000    0.78350   0.98400   0.40240   Biso      1.000     H          0.112675  
         H41       1.0000    0.72120   0.92500   0.45860   Biso      1.000     H          0.116115  
         H42       1.0000    0.65590   0.68250   0.05430   Biso      1.000     H          0.135149  
         H43       1.0000    0.25730   0.85650   0.14590   Biso      1.000     H          0.118537  
         H44       1.0000    0.61380   0.64590   0.14350   Biso      1.000     H          0.11936   
         H45       1.0000    0.60480   0.57500   0.04140   Biso      1.000     H          0.116069  
         H46       1.0000    0.20780   0.06510   0.06510   Biso      1.000     H          0.085958  
         H47       1.0000    0.83800   0.43490   0.43490   Biso      1.000     H          0.084436  
         H48       1.0000    0.77290   0.93490   0.56510   Biso      1.000     H          0.08515   
         H49       1.0000    0.77290   0.56510   0.93490   Biso      1.000     H          0.085151  
         H50       1.0000    0.16200   0.56510   0.56510   Biso      1.000     H          0.084437  
         H51       1.0000    0.79220   0.93490   0.93490   Biso      1.000     H          0.085957  
         H52       1.0000    0.78980   0.81750   0.05430   Biso      1.000     H          0.135786  
         H53       1.0000    0.21020   0.94570   0.18250   Biso      1.000     H          0.135786  
         H54       1.0000    0.66990   0.51600   0.09760   Biso      1.000     H          0.113527  
         H55       1.0000    0.68590   0.59760   0.48400   Biso      1.000     H          0.112558  
         H56       1.0000    0.73250   0.98400   0.09760   Biso      1.000     H          0.113081  
         H57       1.0000    0.85380   0.92500   0.04140   Biso      1.000     H          0.11603   
         H58       1.0000    0.16160   0.68250   0.44570   Biso      1.000     H          0.136324  
         H59       1.0000    0.24030   0.64590   0.35650   Biso      1.000     H          0.119574  
         H60       1.0000    0.31410   0.51600   0.40240   Biso      1.000     H          0.112556  
         H61       1.0000    0.32020   0.57500   0.45860   Biso      1.000     H          0.117556  
         H62       1.0000    0.34410   0.94570   0.31750   Biso      1.000     H          0.135148  
         H63       1.0000    0.67980   0.54140   0.42500   Biso      1.000     H          0.117556  
         H64       1.0000    0.38620   0.85650   0.35410   Biso      1.000     H          0.119361  
         H65       1.0000    0.39520   0.95860   0.42500   Biso      1.000     H          0.116067  
         H66       1.0000    0.10730   0.55430   0.18250   Biso      1.000     H          0.136681  
         H67       1.0000    0.09680   0.64350   0.14590   Biso      1.000     H          0.119861  
         H68       1.0000    0.21650   0.59760   0.01600   Biso      1.000     H          0.11267   
         H69       1.0000    0.27880   0.54140   0.07500   Biso      1.000     H          0.11611   
         H70       1.0000    0.83840   0.55430   0.31750   Biso      1.000     H          0.136325  
         H71       1.0000    0.75970   0.64350   0.35410   Biso      1.000     H          0.119574  
         H72       1.0000    0.33010   0.90240   0.48400   Biso      1.000     H          0.113528  
         I1        1.0000    0.66722   0.83278   0.33278   Biso      1.000     I          -0.421854           
         I2        1.0000    0.33278   0.66722   0.16722   Biso      1.000     I          -0.421858           
         I3        1.0000    0.00000   0.83278   0.16722   Biso      1.000     I          -0.421943           
         I4        1.0000    0.50000   0.66722   0.33278   Biso      1.000     I          -0.42175  
         I5        1.0000    0.66722   0.33278   0.83278   Biso      1.000     I          -0.421859           
         I6        1.0000    0.00000   0.16722   0.83278   Biso      1.000     I          -0.421943           
         I7        1.0000    0.50000   0.33278   0.66722   Biso      1.000     I          -0.421749           
         I8        1.0000    0.33278   0.16722   0.66722   Biso      1.000     I          -0.421851           
         N1        1.0000    0.44160   0.84570   0.16510   Biso      1.000     N          -0.15946  
         N2        1.0000    0.95240   0.65430   0.33490   Biso      1.000     N          -0.158735           
         N3        1.0000    0.89330   0.65430   0.16510   Biso      1.000     N          -0.159329           
         N4        1.0000    0.21270   0.84570   0.33490   Biso      1.000     N          -0.159266           
         N5        1.0000    0.04760   0.66510   0.34570   Biso      1.000     N          -0.158734           
         N6        1.0000    0.55840   0.83490   0.15430   Biso      1.000     N          -0.159453           
         N7        1.0000    0.21270   0.33490   0.84570   Biso      1.000     N          -0.15928  
         N8        1.0000    0.89330   0.16510   0.65430   Biso      1.000     N          -0.159342           
         N9        1.0000    0.04760   0.34570   0.66510   Biso      1.000     N          -0.158733           
         N10       1.0000    0.10670   0.34570   0.83490   Biso      1.000     N          -0.159324           
         N11       1.0000    0.78730   0.15430   0.66510   Biso      1.000     N          -0.159262           
         N12       1.0000    0.95240   0.33490   0.65430   Biso      1.000     N          -0.158734           
         N13       1.0000    0.44160   0.16510   0.84570   Biso      1.000     N          -0.159457           
         N14       1.0000    0.10670   0.83490   0.34570   Biso      1.000     N          -0.159339           
         N15       1.0000    0.55840   0.15430   0.83490   Biso      1.000     N          -0.159455           
         N16       1.0000    0.78730   0.66510   0.15430   Biso      1.000     N          -0.159278 