
##########################################################################
#               Crystallographic Information Format file
#               Produced by PyCifRW module
#
#  This is a CIF file.  CIF has been adopted by the International
#  Union of Crystallography as the standard for data archiving and
#  transmission.
#
#  For information on this file format, follow the CIF links at
#  http://www.iucr.org
##########################################################################

data_image0

_cell_length_a                          6.405
_cell_length_b                          14.164
_cell_length_c                          20.098
_cell_angle_alpha                       90
_cell_angle_beta                        95.29
_cell_angle_gamma                       90
_symmetry_space_group_name_H-M          'P 1'
_symmetry_int_tables_number             1
loop_
  _symmetry_equiv_pos_as_xyz
         'x, y, z' 
loop_
  _atom_site_label
  _atom_site_occupancy
  _atom_site_fract_x
  _atom_site_fract_y
  _atom_site_fract_z
  _atom_site_thermal_displace_type
  _atom_site_B_iso_or_equiv
  _atom_site_type_symbol
  _atom_site_charge
         C1        1.0000    0.37750   0.86270   0.82000   Biso      1.000     C          -0.098683           
         C2        1.0000    0.66880   0.58530   0.40399   Biso      1.000     C          0.61256   
         C3        1.0000    0.70600   0.98400   0.48820   Biso      1.000     C          -0.110747           
         C4        1.0000    0.37380   0.92450   0.51590   Biso      1.000     C          -0.10504000000000001          
         C5        1.0000    0.58210   0.90810   0.50410   Biso      1.000     C          -0.025195           
         C6        1.0000    0.67410   0.80980   0.51067   Biso      1.000     C          0.610504  
         C7        1.0000    0.35550   0.71410   0.66243   Biso      1.000     C          0.61243   
         C8        1.0000    0.30310   0.81680   0.76140   Biso      1.000     C          -0.10362400000000001          
         C9        1.0000    0.43640   0.76170   0.72661   Biso      1.000     C          -0.019991           
         C10       1.0000    0.58830   0.64250   0.34405   Biso      1.000     C          -0.025906000000000002         
         C11       1.0000    0.64750   0.75380   0.75100   Biso      1.000     C          -0.10429200000000001          
         C12       1.0000    0.58830   0.85750   0.84405   Biso      1.000     C          -0.025906000000000002         
         C13       1.0000    0.66880   0.91470   0.90399   Biso      1.000     C          0.61256   
         C14       1.0000    0.29400   0.48400   0.01180   Biso      1.000     C          -0.110747           
         C15       1.0000    0.62620   0.42450   0.98410   Biso      1.000     C          -0.10504000000000001          
         C16       1.0000    0.41790   0.40810   0.99590   Biso      1.000     C          -0.025195           
         C17       1.0000    0.32590   0.30980   0.98933   Biso      1.000     C          0.610504  
         C18       1.0000    0.62250   0.36270   0.68000   Biso      1.000     C          -0.098683           
         C19       1.0000    0.69690   0.31680   0.73860   Biso      1.000     C          -0.10362400000000001          
         C20       1.0000    0.72290   0.80220   0.80910   Biso      1.000     C          -0.100078           
         C21       1.0000    0.72290   0.69780   0.30910   Biso      1.000     C          -0.100078           
         C22       1.0000    0.64750   0.74620   0.25100   Biso      1.000     C          -0.10429200000000001          
         C23       1.0000    0.43640   0.73830   0.22661   Biso      1.000     C          -0.019991           
         C24       1.0000    0.29400   0.01600   0.51180   Biso      1.000     C          -0.110748           
         C25       1.0000    0.62620   0.07550   0.48410   Biso      1.000     C          -0.10504000000000001          
         C26       1.0000    0.41790   0.09190   0.49590   Biso      1.000     C          -0.025195           
         C27       1.0000    0.32590   0.19020   0.48933   Biso      1.000     C          0.610504  
         C28       1.0000    0.64450   0.28590   0.33757   Biso      1.000     C          0.61243   
         C29       1.0000    0.62250   0.13730   0.18000   Biso      1.000     C          -0.098683           
         C30       1.0000    0.69690   0.18320   0.23860   Biso      1.000     C          -0.10362400000000001          
         C31       1.0000    0.56360   0.23830   0.27339   Biso      1.000     C          -0.019991           
         C32       1.0000    0.35250   0.24620   0.24900   Biso      1.000     C          -0.10429200000000001          
         C33       1.0000    0.27710   0.19780   0.19090   Biso      1.000     C          -0.100078           
         C34       1.0000    0.41170   0.14250   0.15595   Biso      1.000     C          -0.025906000000000002         
         C35       1.0000    0.33120   0.08530   0.09601   Biso      1.000     C          0.61256   
         C36       1.0000    0.70600   0.51600   0.98820   Biso      1.000     C          -0.110748           
         C37       1.0000    0.37380   0.57550   0.01590   Biso      1.000     C          -0.10504000000000001          
         C38       1.0000    0.58210   0.59190   0.00410   Biso      1.000     C          -0.025195           
         C39       1.0000    0.67410   0.69020   0.01067   Biso      1.000     C          0.610504  
         C40       1.0000    0.35550   0.78590   0.16243   Biso      1.000     C          0.612429  
         C41       1.0000    0.37750   0.63730   0.32000   Biso      1.000     C          -0.09868400000000001          
         C42       1.0000    0.30310   0.68320   0.26140   Biso      1.000     C          -0.10362400000000001          
         C43       1.0000    0.56360   0.26170   0.77339   Biso      1.000     C          -0.019991           
         C44       1.0000    0.35250   0.25380   0.74900   Biso      1.000     C          -0.10429200000000001          
         C45       1.0000    0.64450   0.21410   0.83757   Biso      1.000     C          0.612429  
         C46       1.0000    0.41170   0.35750   0.65595   Biso      1.000     C          -0.025906000000000002         
         C47       1.0000    0.33120   0.41470   0.59601   Biso      1.000     C          0.61256   
         C48       1.0000    0.27710   0.30220   0.69090   Biso      1.000     C          -0.100078           
         H1        1.0000    0.77800   0.13100   0.02800   Biso      1.000     H          0.47087700000000005           
         H2        1.0000    0.84470   0.97350   0.48010   Biso      1.000     H          0.12003399999999999           
         H3        1.0000    0.28870   0.87450   0.52640   Biso      1.000     H          0.11863299999999999           
         H4        1.0000    0.28520   0.89730   0.84350   Biso      1.000     H          0.11800699999999999           
         H5        1.0000    0.16290   0.82300   0.74520   Biso      1.000     H          0.11893599999999999           
         H6        1.0000    0.73770   0.71640   0.72860   Biso      1.000     H          0.11898199999999999           
         H7        1.0000    0.84200   0.57400   0.59840   Biso      1.000     H          0.57152   
         H8        1.0000    0.22200   0.63100   0.47200   Biso      1.000     H          0.47087700000000005           
         H9        1.0000    0.15530   0.47350   0.01990   Biso      1.000     H          0.12003399999999999           
         H10       1.0000    0.71130   0.37450   0.97360   Biso      1.000     H          0.11863299999999999           
         H11       1.0000    0.71480   0.39730   0.65650   Biso      1.000     H          0.11800699999999999           
         H12       1.0000    0.83710   0.32300   0.75480   Biso      1.000     H          0.11893599999999999           
         H13       1.0000    0.26230   0.21640   0.77140   Biso      1.000     H          0.11898199999999999           
         H14       1.0000    0.13620   0.29740   0.67530   Biso      1.000     H          0.116722  
         H15       1.0000    0.15800   0.07400   0.90160   Biso      1.000     H          0.57152   
         H16       1.0000    0.86380   0.70260   0.32470   Biso      1.000     H          0.116722  
         H17       1.0000    0.86380   0.79740   0.82470   Biso      1.000     H          0.116722  
         H18       1.0000    0.16290   0.67700   0.24520   Biso      1.000     H          0.11893599999999999           
         H19       1.0000    0.73770   0.78360   0.22860   Biso      1.000     H          0.11898199999999999           
         H20       1.0000    0.84200   0.92600   0.09840   Biso      1.000     H          0.57152   
         H21       1.0000    0.22200   0.86900   0.97200   Biso      1.000     H          0.47087700000000005           
         H22       1.0000    0.15530   0.02650   0.51990   Biso      1.000     H          0.12003399999999999           
         H23       1.0000    0.71480   0.10270   0.15650   Biso      1.000     H          0.11800699999999999           
         H24       1.0000    0.83710   0.17700   0.25480   Biso      1.000     H          0.11893599999999999           
         H25       1.0000    0.26230   0.28360   0.27140   Biso      1.000     H          0.11898199999999999           
         H26       1.0000    0.71130   0.12550   0.47360   Biso      1.000     H          0.11863299999999999           
         H27       1.0000    0.15800   0.42600   0.40160   Biso      1.000     H          0.57152   
         H28       1.0000    0.77800   0.36900   0.52800   Biso      1.000     H          0.47087700000000005           
         H29       1.0000    0.84470   0.52650   0.98010   Biso      1.000     H          0.12003399999999999           
         H30       1.0000    0.28870   0.62550   0.02640   Biso      1.000     H          0.11863299999999999           
         H31       1.0000    0.28520   0.60270   0.34350   Biso      1.000     H          0.11800699999999999           
         H32       1.0000    0.13620   0.20260   0.17530   Biso      1.000     H          0.116722  
         O1        1.0000    0.46710   0.84860   0.13868   Biso      1.000     O          -0.581577           
         O2        1.0000    0.87300   0.80430   0.51971   Biso      1.000     O          -0.56777  
         O3        1.0000    0.55020   0.74200   0.50782   Biso      1.000     O          -0.585388           
         O4        1.0000    0.79370   0.11687   0.99182   Biso      1.000     O          -0.96936  
         O5        1.0000    0.17360   0.08358   0.93357   Biso      1.000     O          -1.084079           
         O6        1.0000    0.53310   0.54746   0.43842   Biso      1.000     O          -0.626184           
         O7        1.0000    0.86320   0.57676   0.41659   Biso      1.000     O          -0.544127           
         O8        1.0000    0.17560   0.75946   0.13789   Biso      1.000     O          -0.563495           
         O9        1.0000    0.12700   0.19570   0.48029   Biso      1.000     O          -0.56777  
         O10       1.0000    0.79370   0.38313   0.49182   Biso      1.000     O          -0.96936  
         O11       1.0000    0.53290   0.34860   0.36132   Biso      1.000     O          -0.581577           
         O12       1.0000    0.82440   0.25946   0.36211   Biso      1.000     O          -0.563495           
         O13       1.0000    0.13680   0.07676   0.08341   Biso      1.000     O          -0.544126           
         O14       1.0000    0.46690   0.04746   0.06158   Biso      1.000     O          -0.626184           
         O15       1.0000    0.17360   0.41642   0.43357   Biso      1.000     O          -1.084079           
         O16       1.0000    0.87300   0.69570   0.01971   Biso      1.000     O          -0.56777  
         O17       1.0000    0.46710   0.65140   0.63868   Biso      1.000     O          -0.581577           
         O18       1.0000    0.55020   0.75800   0.00782   Biso      1.000     O          -0.585388           
         O19       1.0000    0.44980   0.25800   0.49218   Biso      1.000     O          -0.585388           
         O20       1.0000    0.17560   0.74054   0.63789   Biso      1.000     O          -0.563495           
         O21       1.0000    0.82640   0.91642   0.06643   Biso      1.000     O          -1.08408  
         O22       1.0000    0.53310   0.95254   0.93842   Biso      1.000     O          -0.626184           
         O23       1.0000    0.82640   0.58358   0.56643   Biso      1.000     O          -1.084079           
         O24       1.0000    0.20630   0.61687   0.50818   Biso      1.000     O          -0.96936  
         O25       1.0000    0.12700   0.30430   0.98029   Biso      1.000     O          -0.56777  
         O26       1.0000    0.44980   0.24200   0.99218   Biso      1.000     O          -0.585388           
         O27       1.0000    0.53290   0.15140   0.86132   Biso      1.000     O          -0.581577           
         O28       1.0000    0.82440   0.24054   0.86211   Biso      1.000     O          -0.563495           
         O29       1.0000    0.13680   0.42324   0.58341   Biso      1.000     O          -0.544127           
         O30       1.0000    0.46690   0.45254   0.56158   Biso      1.000     O          -0.626184           
         O31       1.0000    0.20630   0.88313   0.00818   Biso      1.000     O          -0.96936  
         O32       1.0000    0.86320   0.92324   0.91659   Biso      1.000     O          -0.544126           
         Zn1       1.0000    0.51452   0.60197   0.54392   Biso      1.000     Zn          1.0793190000000001  
         Zn2       1.0000    0.01446   0.69286   0.55815   Biso      1.000     Zn          1.0189549999999998  
         Zn3       1.0000    0.48548   0.10197   0.95608   Biso      1.000     Zn          1.0793190000000001  
         Zn4       1.0000    0.01446   0.80714   0.05815   Biso      1.000     Zn          1.0189549999999998  
         Zn5       1.0000    0.00000   0.00000   0.00000   Biso      1.000     Zn          1.056117  
         Zn6       1.0000    0.98554   0.30714   0.44185   Biso      1.000     Zn          1.0189540000000001  
         Zn7       1.0000    0.51452   0.89803   0.04392   Biso      1.000     Zn          1.0793190000000001  
         Zn8       1.0000    0.00000   0.50000   0.50000   Biso      1.000     Zn          1.056117  
         Zn9       1.0000    0.48548   0.39803   0.45608   Biso      1.000     Zn          1.0793190000000001  
         Zn10      1.0000    0.98554   0.19286   0.94185   Biso      1.000     Zn          1.0189540000000001 