
##########################################################################
#               Crystallographic Information Format file
#               Produced by PyCifRW module
#
#  This is a CIF file.  CIF has been adopted by the International
#  Union of Crystallography as the standard for data archiving and
#  transmission.
#
#  For information on this file format, follow the CIF links at
#  http://www.iucr.org
##########################################################################

data_image0

_cell_length_a                          8.1471
_cell_length_b                          11.6977
_cell_length_c                          11.6977
_cell_angle_alpha                       109.553
_cell_angle_beta                        104.734
_cell_angle_gamma                       75.2658
_symmetry_space_group_name_H-M          'P 1'
_symmetry_int_tables_number             1
loop_
  _symmetry_equiv_pos_as_xyz
         'x, y, z' 
loop_
  _atom_site_label
  _atom_site_occupancy
  _atom_site_fract_x
  _atom_site_fract_y
  _atom_site_fract_z
  _atom_site_thermal_displace_type
  _atom_site_B_iso_or_equiv
  _atom_site_type_symbol
  _atom_site_charge
         C1        1.0000    0.77030   0.08168   0.48592   Biso      1.000     C          0.022358000000000003          
         C2        1.0000    0.76930   0.01645   0.65815   Biso      1.000     C          0.101096  
         C3        1.0000    0.78050   0.34883   0.06977   Biso      1.000     C          0.594418  
         C4        1.0000    0.72970   0.48592   0.08168   Biso      1.000     C          0.022383  
         C5        1.0000    0.77780   0.53372   0.00468   Biso      1.000     C          -0.15624100000000002          
         C6        1.0000    0.63200   0.56623   0.16697   Biso      1.000     C          -0.15851800000000002          
         C7        1.0000    0.58760   0.68965   0.17235   Biso      1.000     C          0.088309  
         C8        1.0000    0.73070   0.65815   0.01645   Biso      1.000     C          0.101096  
         C9        1.0000    0.72220   0.00468   0.53372   Biso      1.000     C          -0.156249           
         C10       1.0000    0.71950   0.06977   0.34883   Biso      1.000     C          0.59443   
         C11       1.0000    0.26930   0.34185   0.98355   Biso      1.000     C          0.101092  
         C12       1.0000    0.41240   0.31035   0.82765   Biso      1.000     C          0.08830700000000001           
         C13       1.0000    0.36800   0.43377   0.83303   Biso      1.000     C          -0.158519           
         C14       1.0000    0.91240   0.17235   0.68965   Biso      1.000     C          0.088299  
         C15       1.0000    0.22220   0.46628   0.99532   Biso      1.000     C          -0.15623800000000002          
         C16       1.0000    0.21950   0.65117   0.93023   Biso      1.000     C          0.594417  
         C17       1.0000    0.23070   0.98355   0.34185   Biso      1.000     C          0.101096  
         C18       1.0000    0.08760   0.82765   0.31035   Biso      1.000     C          0.0883    
         C19       1.0000    0.13200   0.83303   0.43377   Biso      1.000     C          -0.158502           
         C20       1.0000    0.27780   0.99532   0.46628   Biso      1.000     C          -0.156251           
         C21       1.0000    0.22970   0.91832   0.51408   Biso      1.000     C          0.022362  
         C22       1.0000    0.28050   0.93023   0.65117   Biso      1.000     C          0.594429  
         C23       1.0000    0.27030   0.51408   0.91832   Biso      1.000     C          0.022386  
         C24       1.0000    0.86800   0.16697   0.56623   Biso      1.000     C          -0.1585   
         F1        1.0000    0.00500   0.90948   0.89116   Biso      1.000     F          -0.529069           
         F2        1.0000    0.50500   0.10884   0.09052   Biso      1.000     F          -0.529083           
         F3        1.0000    0.69140   0.08530   0.92556   Biso      1.000     F          -0.56502  
         F4        1.0000    0.99500   0.09052   0.10884   Biso      1.000     F          -0.529069           
         F5        1.0000    0.80860   0.92556   0.08530   Biso      1.000     F          -0.5650270000000001           
         F6        1.0000    0.49500   0.89116   0.90948   Biso      1.000     F          -0.529083           
         F7        1.0000    0.30860   0.91470   0.07444   Biso      1.000     F          -0.56502  
         F8        1.0000    0.19140   0.07444   0.91470   Biso      1.000     F          -0.5650270000000001           
         H1        1.0000    0.09650   0.77990   0.46250   Biso      1.000     H          0.137257  
         H2        1.0000    0.76600   0.68910   0.96490   Biso      1.000     H          0.10906300000000001           
         H3        1.0000    0.52090   0.74280   0.22960   Biso      1.000     H          0.097709  
         H4        1.0000    0.59650   0.53750   0.22010   Biso      1.000     H          0.13726   
         H5        1.0000    0.84180   0.48210   0.94510   Biso      1.000     H          0.12848099999999998           
         H6        1.0000    0.73400   0.96490   0.68910   Biso      1.000     H          0.109071  
         H7        1.0000    0.97910   0.22960   0.74280   Biso      1.000     H          0.09771200000000001           
         H8        1.0000    0.90350   0.22010   0.53750   Biso      1.000     H          0.137256  
         H9        1.0000    0.23400   0.31090   0.03510   Biso      1.000     H          0.10906400000000001           
         H10       1.0000    0.47910   0.25720   0.77040   Biso      1.000     H          0.097709  
         H11       1.0000    0.40350   0.46250   0.77990   Biso      1.000     H          0.13726   
         H12       1.0000    0.15820   0.51790   0.05490   Biso      1.000     H          0.12847999999999998           
         H13       1.0000    0.26600   0.03510   0.31090   Biso      1.000     H          0.109071  
         H14       1.0000    0.02090   0.77040   0.25720   Biso      1.000     H          0.09771200000000001           
         H15       1.0000    0.65820   0.94510   0.48210   Biso      1.000     H          0.128487  
         H16       1.0000    0.34180   0.05490   0.51790   Biso      1.000     H          0.128487  
         N1        1.0000    0.13650   0.90126   0.26368   Biso      1.000     N          -0.224037           
         N2        1.0000    0.36350   0.26368   0.90126   Biso      1.000     N          -0.224039           
         N3        1.0000    0.63650   0.73632   0.09874   Biso      1.000     N          -0.22404000000000002          
         N4        1.0000    0.86350   0.09874   0.73632   Biso      1.000     N          -0.22403800000000001          
         O1        1.0000    0.72200   0.31105   0.13733   Biso      1.000     O          -0.5402680000000001           
         O2        1.0000    0.87530   0.28689   0.99213   Biso      1.000     O          -0.557936           
         O3        1.0000    0.77800   0.13733   0.31105   Biso      1.000     O          -0.5402640000000001           
         O4        1.0000    0.62470   0.99213   0.28689   Biso      1.000     O          -0.55794  
         O5        1.0000    0.27800   0.68895   0.86267   Biso      1.000     O          -0.540267           
         O6        1.0000    0.12470   0.71311   0.00787   Biso      1.000     O          -0.557936           
         O7        1.0000    0.22200   0.86267   0.68895   Biso      1.000     O          -0.5402640000000001           
         O8        1.0000    0.37530   0.00787   0.71311   Biso      1.000     O          -0.5579390000000001           
         Zn1       1.0000    0.25000   0.86802   0.86802   Biso      1.000     Zn          0.998616  
         Zn2       1.0000    0.75000   0.13198   0.13198   Biso      1.000     Zn          0.998616  
         Zn3       1.0000    0.93687   0.09977   0.92137   Biso      1.000     Zn          0.9530709999999999  
         Zn4       1.0000    0.56313   0.92137   0.09977   Biso      1.000     Zn          0.9530780000000001  
         Zn5       1.0000    0.06313   0.90023   0.07863   Biso      1.000     Zn          0.9530700000000001  
         Zn6       1.0000    0.43687   0.07863   0.90023   Biso      1.000     Zn          0.9530770000000001 