
##########################################################################
#               Crystallographic Information Format file
#               Produced by PyCifRW module
#
#  This is a CIF file.  CIF has been adopted by the International
#  Union of Crystallography as the standard for data archiving and
#  transmission.
#
#  For information on this file format, follow the CIF links at
#  http://www.iucr.org
##########################################################################

data_image0

_cell_length_a                          7.3585
_cell_length_b                          18.7029
_cell_length_c                          23.5965
_cell_angle_alpha                       90
_cell_angle_beta                        90
_cell_angle_gamma                       90
_symmetry_space_group_name_H-M          'P 1'
_symmetry_int_tables_number             1
loop_
  _symmetry_equiv_pos_as_xyz
         'x, y, z' 
loop_
  _atom_site_label
  _atom_site_occupancy
  _atom_site_fract_x
  _atom_site_fract_y
  _atom_site_fract_z
  _atom_site_thermal_displace_type
  _atom_site_B_iso_or_equiv
  _atom_site_type_symbol
  _atom_site_charge
         C1        1.0000    0.37930   0.17413   0.55293   Biso      1.000     C          -0.029045           
         C2        1.0000    0.16400   0.79448   0.48042   Biso      1.000     C          -0.009316           
         C3        1.0000    0.09800   0.82039   0.42902   Biso      1.000     C          -0.177468           
         C4        1.0000    0.03740   0.77390   0.38699   Biso      1.000     C          0.205399  
         C5        1.0000    0.96950   0.80220   0.33092   Biso      1.000     C          -0.52931  
         C6        1.0000    0.47070   0.48615   0.35533   Biso      1.000     C          0.621715  
         C7        1.0000    0.56740   0.50276   0.30098   Biso      1.000     C          -0.022894           
         C8        1.0000    0.73930   0.53430   0.30070   Biso      1.000     C          -0.153901           
         C9        1.0000    0.32190   0.22086   0.51127   Biso      1.000     C          -0.12626  
         C10       1.0000    0.45350   0.20080   0.60308   Biso      1.000     C          -0.173896           
         C11       1.0000    0.34830   0.09520   0.54576   Biso      1.000     C          0.613898  
         C12       1.0000    0.27170   0.34300   0.47351   Biso      1.000     C          0.594214  
         C13       1.0000    0.33600   0.29448   0.51958   Biso      1.000     C          -0.009316           
         C14       1.0000    0.40200   0.32039   0.57098   Biso      1.000     C          -0.177468           
         C15       1.0000    0.46260   0.27390   0.61301   Biso      1.000     C          0.205399  
         C16       1.0000    0.53050   0.30220   0.66908   Biso      1.000     C          -0.52931  
         C17       1.0000    0.02930   0.98615   0.64467   Biso      1.000     C          0.621715  
         C18       1.0000    0.93260   0.00276   0.69902   Biso      1.000     C          -0.022894           
         C19       1.0000    0.76070   0.03430   0.69930   Biso      1.000     C          -0.153901           
         C20       1.0000    0.17810   0.72086   0.01127   Biso      1.000     C          -0.126262           
         C21       1.0000    0.12070   0.67413   0.05293   Biso      1.000     C          -0.029043           
         C22       1.0000    0.04650   0.70080   0.10308   Biso      1.000     C          -0.173896           
         C23       1.0000    0.15170   0.59520   0.04576   Biso      1.000     C          0.613897  
         C24       1.0000    0.22830   0.84300   0.97351   Biso      1.000     C          0.594214  
         C25       1.0000    0.22830   0.84300   0.52649   Biso      1.000     C          0.594214  
         C26       1.0000    0.16400   0.79448   0.01958   Biso      1.000     C          -0.009316           
         C27       1.0000    0.82190   0.27914   0.98873   Biso      1.000     C          -0.126262           
         C28       1.0000    0.95350   0.29920   0.89692   Biso      1.000     C          -0.173896           
         C29       1.0000    0.12070   0.67413   0.44707   Biso      1.000     C          -0.029045           
         C30       1.0000    0.17810   0.72086   0.48873   Biso      1.000     C          -0.12626  
         C31       1.0000    0.23930   0.96570   0.19930   Biso      1.000     C          -0.153901           
         C32       1.0000    0.06740   0.99724   0.19902   Biso      1.000     C          -0.022894           
         C33       1.0000    0.97070   0.01385   0.14467   Biso      1.000     C          0.621715  
         C34       1.0000    0.46950   0.69780   0.16908   Biso      1.000     C          -0.529311           
         C35       1.0000    0.53740   0.72610   0.11301   Biso      1.000     C          0.205399  
         C36       1.0000    0.59800   0.67961   0.07098   Biso      1.000     C          -0.177468           
         C37       1.0000    0.66400   0.70552   0.01958   Biso      1.000     C          -0.009316           
         C38       1.0000    0.72830   0.65700   0.97351   Biso      1.000     C          0.594214  
         C39       1.0000    0.65170   0.90480   0.04576   Biso      1.000     C          0.613898  
         C40       1.0000    0.54650   0.79920   0.10308   Biso      1.000     C          -0.173896           
         C41       1.0000    0.62070   0.82587   0.05293   Biso      1.000     C          -0.029045           
         C42       1.0000    0.67810   0.77914   0.01127   Biso      1.000     C          -0.12626  
         C43       1.0000    0.26070   0.46570   0.80070   Biso      1.000     C          -0.153901           
         C44       1.0000    0.43260   0.49724   0.80098   Biso      1.000     C          -0.022894           
         C45       1.0000    0.52930   0.51385   0.85533   Biso      1.000     C          0.621715  
         C46       1.0000    0.03050   0.19780   0.83092   Biso      1.000     C          -0.52931  
         C47       1.0000    0.96260   0.22610   0.88699   Biso      1.000     C          0.205399  
         C48       1.0000    0.90200   0.17961   0.92902   Biso      1.000     C          -0.177468           
         C49       1.0000    0.83600   0.20552   0.98042   Biso      1.000     C          -0.009316           
         C50       1.0000    0.77170   0.15700   0.02649   Biso      1.000     C          0.594214  
         C51       1.0000    0.84830   0.40480   0.95424   Biso      1.000     C          0.613897  
         C52       1.0000    0.87930   0.32587   0.94707   Biso      1.000     C          -0.029043           
         C53       1.0000    0.09800   0.82039   0.07098   Biso      1.000     C          -0.177468           
         C54       1.0000    0.03740   0.77390   0.11301   Biso      1.000     C          0.205399  
         C55       1.0000    0.96950   0.80220   0.16908   Biso      1.000     C          -0.52931  
         C56       1.0000    0.62070   0.82587   0.44707   Biso      1.000     C          -0.029045           
         C57       1.0000    0.54650   0.79920   0.39692   Biso      1.000     C          -0.173896           
         C58       1.0000    0.65170   0.90480   0.45424   Biso      1.000     C          0.613898  
         C59       1.0000    0.72830   0.65700   0.52649   Biso      1.000     C          0.594214  
         C60       1.0000    0.66400   0.70552   0.48042   Biso      1.000     C          -0.009316           
         C61       1.0000    0.59800   0.67961   0.42902   Biso      1.000     C          -0.177468           
         C62       1.0000    0.53740   0.72610   0.38699   Biso      1.000     C          0.205399  
         C63       1.0000    0.46950   0.69780   0.33092   Biso      1.000     C          -0.52931  
         C64       1.0000    0.97070   0.01385   0.35533   Biso      1.000     C          0.621715  
         C65       1.0000    0.06740   0.99724   0.30098   Biso      1.000     C          -0.022895           
         C66       1.0000    0.23930   0.96570   0.30070   Biso      1.000     C          -0.153901           
         C67       1.0000    0.51670   0.51290   0.75000   Biso      1.000     C          -0.104444           
         C68       1.0000    0.17170   0.44970   0.75000   Biso      1.000     C          0.169769  
         C69       1.0000    0.98460   0.41710   0.75000   Biso      1.000     C          -0.381531           
         C70       1.0000    0.98330   0.01290   0.25000   Biso      1.000     C          -0.104442           
         C71       1.0000    0.32830   0.94970   0.25000   Biso      1.000     C          0.16977   
         C72       1.0000    0.51540   0.91710   0.25000   Biso      1.000     C          -0.381531           
         C73       1.0000    0.48330   0.48710   0.25000   Biso      1.000     C          -0.104444           
         C74       1.0000    0.82830   0.55030   0.25000   Biso      1.000     C          0.169769  
         C75       1.0000    0.01540   0.58290   0.25000   Biso      1.000     C          -0.381531           
         C76       1.0000    0.01670   0.98710   0.75000   Biso      1.000     C          -0.104444           
         C77       1.0000    0.67170   0.05030   0.75000   Biso      1.000     C          0.169769  
         C78       1.0000    0.48460   0.08290   0.75000   Biso      1.000     C          -0.381531           
         C79       1.0000    0.67810   0.77914   0.48873   Biso      1.000     C          -0.12626  
         C80       1.0000    0.26070   0.46570   0.69930   Biso      1.000     C          -0.153901           
         C81       1.0000    0.43260   0.49724   0.69902   Biso      1.000     C          -0.022892           
         C82       1.0000    0.52930   0.51385   0.64467   Biso      1.000     C          0.621715  
         C83       1.0000    0.47070   0.48615   0.14467   Biso      1.000     C          0.621714  
         C84       1.0000    0.56740   0.50276   0.19902   Biso      1.000     C          -0.022892           
         C85       1.0000    0.73930   0.53430   0.19930   Biso      1.000     C          -0.153901           
         C86       1.0000    0.32190   0.22086   0.98873   Biso      1.000     C          -0.126262           
         C87       1.0000    0.37930   0.17413   0.94707   Biso      1.000     C          -0.029043           
         C88       1.0000    0.45350   0.20080   0.89692   Biso      1.000     C          -0.173896           
         C89       1.0000    0.34830   0.09520   0.95424   Biso      1.000     C          0.613897  
         C90       1.0000    0.27170   0.34300   0.02649   Biso      1.000     C          0.594214  
         C91       1.0000    0.33600   0.29448   0.98042   Biso      1.000     C          -0.009316           
         C92       1.0000    0.40200   0.32039   0.92902   Biso      1.000     C          -0.177468           
         C93       1.0000    0.46260   0.27390   0.88699   Biso      1.000     C          0.205399  
         C94       1.0000    0.04650   0.70080   0.39692   Biso      1.000     C          -0.173896           
         C95       1.0000    0.53050   0.30220   0.83092   Biso      1.000     C          -0.52931  
         C96       1.0000    0.93260   0.00276   0.80098   Biso      1.000     C          -0.022893           
         C97       1.0000    0.76070   0.03430   0.80070   Biso      1.000     C          -0.153901           
         C98       1.0000    0.82190   0.27914   0.51127   Biso      1.000     C          -0.126262           
         C99       1.0000    0.87930   0.32587   0.55293   Biso      1.000     C          -0.029043           
         C100      1.0000    0.95350   0.29920   0.60308   Biso      1.000     C          -0.173896           
         C101      1.0000    0.84830   0.40480   0.54576   Biso      1.000     C          0.613897  
         C102      1.0000    0.77170   0.15700   0.47351   Biso      1.000     C          0.594214  
         C103      1.0000    0.83600   0.20552   0.51958   Biso      1.000     C          -0.009316           
         C104      1.0000    0.90200   0.17961   0.57098   Biso      1.000     C          -0.177468           
         C105      1.0000    0.96260   0.22610   0.61301   Biso      1.000     C          0.205399  
         C106      1.0000    0.03050   0.19780   0.66908   Biso      1.000     C          -0.52931  
         C107      1.0000    0.02930   0.98615   0.85533   Biso      1.000     C          0.621715  
         C108      1.0000    0.15170   0.59520   0.45424   Biso      1.000     C          0.613898  
         Ca1       1.0000    0.50000   0.50000   0.00000   Biso      1.000     Ca          1.39286   
         Ca2       1.0000    0.00000   0.00000   0.00000   Biso      1.000     Ca          1.39286   
         Ca3       1.0000    0.50000   0.50000   0.50000   Biso      1.000     Ca          1.39286   
         Ca4       1.0000    0.00000   0.00000   0.50000   Biso      1.000     Ca          1.39286   
         H1        1.0000    0.36910   0.46570   0.25000   Biso      1.000     H          0.130131  
         H2        1.0000    0.00260   0.66910   0.36980   Biso      1.000     H          0.122027  
         H3        1.0000    0.09430   0.86940   0.42270   Biso      1.000     H          0.120087  
         H4        1.0000    0.07100   0.81160   0.30650   Biso      1.000     H          0.164997  
         H5        1.0000    0.89160   0.76740   0.31360   Biso      1.000     H          0.164673  
         H6        1.0000    0.90280   0.84560   0.33710   Biso      1.000     H          0.165522  
         H7        1.0000    0.79570   0.54500   0.33500   Biso      1.000     H          0.124666  
         H8        1.0000    0.27380   0.20320   0.47760   Biso      1.000     H          0.130506  
         H9        1.0000    0.22620   0.70320   0.52240   Biso      1.000     H          0.130506  
         H10       1.0000    0.49740   0.16910   0.63020   Biso      1.000     H          0.122027  
         H11       1.0000    0.40570   0.36940   0.57730   Biso      1.000     H          0.120087  
         H12       1.0000    0.42900   0.31160   0.69350   Biso      1.000     H          0.164997  
         H13       1.0000    0.60840   0.26740   0.68640   Biso      1.000     H          0.164673  
         H14       1.0000    0.59720   0.34560   0.66290   Biso      1.000     H          0.165522  
         H15       1.0000    0.09270   0.55650   0.27520   Biso      1.000     H          0.14001   
         H16       1.0000    0.59270   0.94350   0.22480   Biso      1.000     H          0.14001   
         H17       1.0000    0.40280   0.65440   0.16290   Biso      1.000     H          0.165522  
         H18       1.0000    0.70430   0.04500   0.66500   Biso      1.000     H          0.124666  
         H19       1.0000    0.39160   0.73260   0.18640   Biso      1.000     H          0.164673  
         H20       1.0000    0.57100   0.68840   0.19350   Biso      1.000     H          0.164997  
         H21       1.0000    0.59430   0.63060   0.07730   Biso      1.000     H          0.120087  
         H22       1.0000    0.50260   0.83090   0.13020   Biso      1.000     H          0.122027  
         H23       1.0000    0.72620   0.79680   0.97760   Biso      1.000     H          0.130506  
         H24       1.0000    0.90730   0.44350   0.77520   Biso      1.000     H          0.14001   
         H25       1.0000    0.20430   0.45500   0.83500   Biso      1.000     H          0.124666  
         H26       1.0000    0.09720   0.15440   0.83710   Biso      1.000     H          0.165522  
         H27       1.0000    0.13090   0.96570   0.75000   Biso      1.000     H          0.130131  
         H28       1.0000    0.92900   0.18840   0.80650   Biso      1.000     H          0.164997  
         H29       1.0000    0.90570   0.13060   0.92270   Biso      1.000     H          0.120087  
         H30       1.0000    0.99740   0.33090   0.86980   Biso      1.000     H          0.122027  
         H31       1.0000    0.77380   0.29680   0.02240   Biso      1.000     H          0.130506  
         H32       1.0000    0.29570   0.95500   0.16500   Biso      1.000     H          0.124666  
         H33       1.0000    0.40730   0.05650   0.72480   Biso      1.000     H          0.14001   
         H34       1.0000    0.10840   0.23260   0.81360   Biso      1.000     H          0.164673  
         H35       1.0000    0.00260   0.66910   0.13020   Biso      1.000     H          0.122027  
         H36       1.0000    0.10840   0.23260   0.68640   Biso      1.000     H          0.164673  
         H37       1.0000    0.09720   0.15440   0.66290   Biso      1.000     H          0.165522  
         H38       1.0000    0.20430   0.45500   0.66500   Biso      1.000     H          0.124666  
         H39       1.0000    0.90730   0.44350   0.72480   Biso      1.000     H          0.14001   
         H40       1.0000    0.72620   0.79680   0.52240   Biso      1.000     H          0.130506  
         H41       1.0000    0.50260   0.83090   0.36980   Biso      1.000     H          0.122027  
         H42       1.0000    0.92900   0.18840   0.69350   Biso      1.000     H          0.164997  
         H43       1.0000    0.59430   0.63060   0.42270   Biso      1.000     H          0.120087  
         H44       1.0000    0.39160   0.73260   0.31360   Biso      1.000     H          0.164673  
         H45       1.0000    0.40280   0.65440   0.33710   Biso      1.000     H          0.165522  
         H46       1.0000    0.59270   0.94350   0.27520   Biso      1.000     H          0.14001   
         H47       1.0000    0.63090   0.53430   0.75000   Biso      1.000     H          0.130131  
         H48       1.0000    0.86910   0.03430   0.25000   Biso      1.000     H          0.130131  
         H49       1.0000    0.22620   0.70320   0.97760   Biso      1.000     H          0.130506  
         H50       1.0000    0.57100   0.68840   0.30650   Biso      1.000     H          0.164997  
         H51       1.0000    0.90570   0.13060   0.57730   Biso      1.000     H          0.120087  
         H52       1.0000    0.29570   0.95500   0.33500   Biso      1.000     H          0.124666  
         H53       1.0000    0.77380   0.29680   0.47760   Biso      1.000     H          0.130506  
         H54       1.0000    0.09430   0.86940   0.07730   Biso      1.000     H          0.120087  
         H55       1.0000    0.07100   0.81160   0.19350   Biso      1.000     H          0.164997  
         H56       1.0000    0.89160   0.76740   0.18640   Biso      1.000     H          0.164673  
         H57       1.0000    0.99740   0.33090   0.63020   Biso      1.000     H          0.122027  
         H58       1.0000    0.79570   0.54500   0.16500   Biso      1.000     H          0.124666  
         H59       1.0000    0.09270   0.55650   0.22480   Biso      1.000     H          0.14001   
         H60       1.0000    0.27380   0.20320   0.02240   Biso      1.000     H          0.130506  
         H61       1.0000    0.90280   0.84560   0.16290   Biso      1.000     H          0.165522  
         H62       1.0000    0.49740   0.16910   0.86980   Biso      1.000     H          0.122027  
         H63       1.0000    0.40570   0.36940   0.92270   Biso      1.000     H          0.120087  
         H64       1.0000    0.42900   0.31160   0.80650   Biso      1.000     H          0.164997  
         H65       1.0000    0.70430   0.04500   0.83500   Biso      1.000     H          0.124666  
         H66       1.0000    0.59720   0.34560   0.83710   Biso      1.000     H          0.165522  
         H67       1.0000    0.60840   0.26740   0.81360   Biso      1.000     H          0.164673  
         H68       1.0000    0.40730   0.05650   0.77520   Biso      1.000     H          0.14001   
         O1        1.0000    0.42610   0.05339   0.91943   Biso      1.000     O          -0.567584           
         O2        1.0000    0.24480   0.07487   0.99269   Biso      1.000     O          -0.629307           
         O3        1.0000    0.31350   0.45898   0.14991   Biso      1.000     O          -0.572679           
         O4        1.0000    0.28600   0.81898   0.92824   Biso      1.000     O          -0.507088           
         O5        1.0000    0.22680   0.91150   0.98223   Biso      1.000     O          -0.655648           
         O6        1.0000    0.07390   0.55339   0.08057   Biso      1.000     O          -0.567584           
         O7        1.0000    0.25520   0.57487   0.00731   Biso      1.000     O          -0.629307           
         O8        1.0000    0.18650   0.95898   0.64991   Biso      1.000     O          -0.572679           
         O9        1.0000    0.95510   0.99968   0.59828   Biso      1.000     O          -0.621113           
         O10       1.0000    0.21400   0.31898   0.42824   Biso      1.000     O          -0.507088           
         O11       1.0000    0.54490   0.49968   0.09828   Biso      1.000     O          -0.621113           
         O12       1.0000    0.27320   0.41150   0.01777   Biso      1.000     O          -0.655648           
         O13       1.0000    0.18650   0.95898   0.85009   Biso      1.000     O          -0.572679           
         O14       1.0000    0.95510   0.99968   0.90172   Biso      1.000     O          -0.621113           
         O15       1.0000    0.78600   0.68102   0.57176   Biso      1.000     O          -0.507088           
         O16       1.0000    0.74480   0.42513   0.50731   Biso      1.000     O          -0.629307           
         O17       1.0000    0.92610   0.44661   0.58057   Biso      1.000     O          -0.567584           
         O18       1.0000    0.77320   0.08850   0.48223   Biso      1.000     O          -0.655648           
         O19       1.0000    0.71400   0.18102   0.42824   Biso      1.000     O          -0.507088           
         O20       1.0000    0.45510   0.50032   0.59828   Biso      1.000     O          -0.621113           
         O21       1.0000    0.68650   0.54102   0.64991   Biso      1.000     O          -0.572679           
         O22       1.0000    0.75520   0.92513   0.49269   Biso      1.000     O          -0.629307           
         O23       1.0000    0.57390   0.94661   0.41943   Biso      1.000     O          -0.567584           
         O24       1.0000    0.72680   0.58850   0.51777   Biso      1.000     O          -0.655648           
         O25       1.0000    0.27320   0.41150   0.48223   Biso      1.000     O          -0.655648           
         O26       1.0000    0.21400   0.31898   0.07176   Biso      1.000     O          -0.507088           
         O27       1.0000    0.42610   0.05339   0.58057   Biso      1.000     O          -0.567584           
         O28       1.0000    0.77320   0.08850   0.01777   Biso      1.000     O          -0.655648           
         O29       1.0000    0.31350   0.45898   0.35009   Biso      1.000     O          -0.572679           
         O30       1.0000    0.04490   0.00032   0.40172   Biso      1.000     O          -0.621113           
         O31       1.0000    0.74480   0.42513   0.99269   Biso      1.000     O          -0.629307           
         O32       1.0000    0.92610   0.44661   0.91943   Biso      1.000     O          -0.567584           
         O33       1.0000    0.71400   0.18102   0.07176   Biso      1.000     O          -0.507088           
         O34       1.0000    0.24480   0.07487   0.50731   Biso      1.000     O          -0.629307           
         O35       1.0000    0.68650   0.54102   0.85009   Biso      1.000     O          -0.572679           
         O36       1.0000    0.75520   0.92513   0.00731   Biso      1.000     O          -0.629307           
         O37       1.0000    0.57390   0.94661   0.08057   Biso      1.000     O          -0.567584           
         O38       1.0000    0.45510   0.50032   0.90172   Biso      1.000     O          -0.621113           
         O39       1.0000    0.78600   0.68102   0.92824   Biso      1.000     O          -0.507089           
         O40       1.0000    0.54490   0.49968   0.40172   Biso      1.000     O          -0.621113           
         O41       1.0000    0.72680   0.58850   0.98223   Biso      1.000     O          -0.655648           
         O42       1.0000    0.28600   0.81898   0.57176   Biso      1.000     O          -0.507088           
         O43       1.0000    0.22680   0.91150   0.51777   Biso      1.000     O          -0.655648           
         O44       1.0000    0.81350   0.04102   0.35009   Biso      1.000     O          -0.572679           
         O45       1.0000    0.25520   0.57487   0.49269   Biso      1.000     O          -0.629307           
         O46       1.0000    0.81350   0.04102   0.14991   Biso      1.000     O          -0.572679           
         O47       1.0000    0.04490   0.00032   0.09828   Biso      1.000     O          -0.621113           
         O48       1.0000    0.07390   0.55339   0.41943   Biso      1.000     O          -0.567584           
         Zn1       1.0000    0.85800   0.54915   0.91328   Biso      1.000     Zn          1.004403  
         Zn2       1.0000    0.14200   0.45085   0.41328   Biso      1.000     Zn          1.004402  
         Zn3       1.0000    0.35800   0.95085   0.58672   Biso      1.000     Zn          1.004403  
         Zn4       1.0000    0.14200   0.45085   0.08672   Biso      1.000     Zn          1.004402  
         Zn5       1.0000    0.35800   0.95085   0.91328   Biso      1.000     Zn          1.004402  
         Zn6       1.0000    0.85800   0.54915   0.58672   Biso      1.000     Zn          1.004402  
         Zn7       1.0000    0.64200   0.04915   0.41328   Biso      1.000     Zn          1.004403  
         Zn8       1.0000    0.64200   0.04915   0.08672   Biso      1.000     Zn          1.004403 