
##########################################################################
#               Crystallographic Information Format file
#               Produced by PyCifRW module
#
#  This is a CIF file.  CIF has been adopted by the International
#  Union of Crystallography as the standard for data archiving and
#  transmission.
#
#  For information on this file format, follow the CIF links at
#  http://www.iucr.org
##########################################################################

data_image0

_cell_length_a                          9.4417
_cell_length_b                          13.7005
_cell_length_c                          15.6523
_cell_angle_alpha                       90
_cell_angle_beta                        90
_cell_angle_gamma                       90
_symmetry_space_group_name_H-M          'P 1'
_symmetry_int_tables_number             1
loop_
  _symmetry_equiv_pos_as_xyz
         'x, y, z' 
loop_
  _atom_site_label
  _atom_site_occupancy
  _atom_site_fract_x
  _atom_site_fract_y
  _atom_site_fract_z
  _atom_site_thermal_displace_type
  _atom_site_B_iso_or_equiv
  _atom_site_type_symbol
  _atom_site_charge
         C1        1.0000    0.37400   0.51850   0.75220   Biso      1.000     C          0.060133  
         C2        1.0000    0.93480   0.80830   0.49080   Biso      1.000     C          0.053735  
         C3        1.0000    0.01250   0.79950   0.40690   Biso      1.000     C          0.570641  
         C4        1.0000    0.69590   0.08080   0.23910   Biso      1.000     C          0.550218  
         C5        1.0000    0.62600   0.98150   0.25220   Biso      1.000     C          0.060132  
         C6        1.0000    0.53400   0.99060   0.33430   Biso      1.000     C          0.042993  
         C7        1.0000    0.43480   0.90350   0.33750   Biso      1.000     C          0.586953  
         C8        1.0000    0.78820   0.27930   0.40450   Biso      1.000     C          0.548495  
         C9        1.0000    0.83810   0.28220   0.49730   Biso      1.000     C          0.043484  
         C10       1.0000    0.93480   0.19170   0.50920   Biso      1.000     C          0.053735  
         C11       1.0000    0.01250   0.20050   0.59310   Biso      1.000     C          0.570641  
         C12       1.0000    0.69590   0.91920   0.76090   Biso      1.000     C          0.550218  
         C13       1.0000    0.62600   0.01850   0.74780   Biso      1.000     C          0.060132  
         C14       1.0000    0.53400   0.00940   0.66570   Biso      1.000     C          0.042993  
         C15       1.0000    0.43480   0.09650   0.66250   Biso      1.000     C          0.586953  
         C16       1.0000    0.21180   0.77930   0.09550   Biso      1.000     C          0.548495  
         C17       1.0000    0.16190   0.78220   0.00270   Biso      1.000     C          0.043484  
         C18       1.0000    0.06520   0.69170   0.99080   Biso      1.000     C          0.053735  
         C19       1.0000    0.98750   0.70050   0.90690   Biso      1.000     C          0.570641  
         C20       1.0000    0.30410   0.41920   0.73910   Biso      1.000     C          0.550218  
         C21       1.0000    0.46600   0.50940   0.83430   Biso      1.000     C          0.042993  
         C22       1.0000    0.56520   0.59650   0.83750   Biso      1.000     C          0.586953  
         C23       1.0000    0.21180   0.22070   0.90450   Biso      1.000     C          0.548495  
         C24       1.0000    0.16190   0.21780   0.99730   Biso      1.000     C          0.043484  
         C25       1.0000    0.06520   0.30830   0.00920   Biso      1.000     C          0.053735  
         C26       1.0000    0.98750   0.29950   0.09310   Biso      1.000     C          0.570641  
         C27       1.0000    0.30410   0.58080   0.26090   Biso      1.000     C          0.550218  
         C28       1.0000    0.37400   0.48150   0.24780   Biso      1.000     C          0.060132  
         C29       1.0000    0.46600   0.49060   0.16570   Biso      1.000     C          0.042993  
         C30       1.0000    0.56520   0.40350   0.16250   Biso      1.000     C          0.586953  
         C31       1.0000    0.83810   0.71780   0.50270   Biso      1.000     C          0.043484  
         C32       1.0000    0.78820   0.72070   0.59550   Biso      1.000     C          0.548495  
         Cd1       1.0000    0.60374   0.86779   0.50267   Biso      1.000     Cd          0.990326  
         Cd2       1.0000    0.13413   0.50129   0.88738   Biso      1.000     Cd          0.983126  
         Cd3       1.0000    0.20859   0.23167   0.72264   Biso      1.000     Cd          1.023668  
         Cd4       1.0000    0.13413   0.49871   0.11262   Biso      1.000     Cd          0.983126  
         Cd5       1.0000    0.39626   0.36779   0.99733   Biso      1.000     Cd          0.990326  
         Cd6       1.0000    0.39626   0.63221   0.00267   Biso      1.000     Cd          0.990326  
         Cd7       1.0000    0.79141   0.26833   0.22264   Biso      1.000     Cd          1.023668  
         Cd8       1.0000    0.20859   0.76833   0.27736   Biso      1.000     Cd          1.023668  
         Cd9       1.0000    0.60374   0.13221   0.49733   Biso      1.000     Cd          0.990326  
         Cd10      1.0000    0.79141   0.73167   0.77736   Biso      1.000     Cd          1.023668  
         Cd11      1.0000    0.86587   0.99871   0.38738   Biso      1.000     Cd          0.983126  
         Cd12      1.0000    0.86587   0.00129   0.61262   Biso      1.000     Cd          0.983126  
         H1        1.0000    0.00670   0.80800   0.53780   Biso      1.000     H          0.092039  
         H2        1.0000    0.10850   0.15630   0.00920   Biso      1.000     H          0.100656  
         H3        1.0000    0.66600   0.68100   0.45000   Biso      1.000     H          0.409737  
         H4        1.0000    0.80900   0.91100   0.24300   Biso      1.000     H          0.400227  
         H5        1.0000    0.89150   0.65630   0.49080   Biso      1.000     H          0.100656  
         H6        1.0000    0.56640   0.96350   0.20180   Biso      1.000     H          0.099712  
         H7        1.0000    0.99330   0.30800   0.96220   Biso      1.000     H          0.092039  
         H8        1.0000    0.66600   0.31900   0.55000   Biso      1.000     H          0.409737  
         H9        1.0000    0.43360   0.46350   0.29820   Biso      1.000     H          0.099712  
         H10       1.0000    0.47470   0.05070   0.32870   Biso      1.000     H          0.090021  
         H11       1.0000    0.52530   0.55070   0.17130   Biso      1.000     H          0.090021  
         H12       1.0000    0.19100   0.41100   0.25700   Biso      1.000     H          0.400227  
         H13       1.0000    0.33400   0.18100   0.05000   Biso      1.000     H          0.409737  
         H14       1.0000    0.43360   0.53650   0.70180   Biso      1.000     H          0.099712  
         H15       1.0000    0.99330   0.69200   0.03780   Biso      1.000     H          0.092039  
         H16       1.0000    0.10850   0.84370   0.99080   Biso      1.000     H          0.100655  
         H17       1.0000    0.52530   0.44930   0.82870   Biso      1.000     H          0.090021  
         H18       1.0000    0.33400   0.81900   0.95000   Biso      1.000     H          0.409737  
         H19       1.0000    0.80900   0.08900   0.75700   Biso      1.000     H          0.400227  
         H20       1.0000    0.47470   0.94930   0.67130   Biso      1.000     H          0.090021  
         H21       1.0000    0.56640   0.03650   0.79820   Biso      1.000     H          0.099711  
         H22       1.0000    0.00670   0.19200   0.46220   Biso      1.000     H          0.092039  
         H23       1.0000    0.19100   0.58900   0.74300   Biso      1.000     H          0.400227  
         H24       1.0000    0.89150   0.34370   0.50920   Biso      1.000     H          0.100655  
         O1        1.0000    0.27640   0.77190   0.94570   Biso      1.000     O          -0.492003           
         O2        1.0000    0.27040   0.59150   0.76900   Biso      1.000     O          -0.523117           
         O3        1.0000    0.37320   0.35450   0.70000   Biso      1.000     O          -0.521594           
         O4        1.0000    0.18190   0.40440   0.76920   Biso      1.000     O          -0.568063           
         O5        1.0000    0.99640   0.63560   0.85030   Biso      1.000     O          -0.549853           
         O6        1.0000    0.14620   0.60740   0.99890   Biso      1.000     O          -0.625893           
         O7        1.0000    0.38320   0.49920   0.90660   Biso      1.000     O          -0.632844           
         O8        1.0000    0.12390   0.81040   0.15150   Biso      1.000     O          -0.553652           
         O9        1.0000    0.90830   0.77500   0.89640   Biso      1.000     O          -0.535412           
         O10       1.0000    0.55830   0.65790   0.89650   Biso      1.000     O          -0.542304           
         O11       1.0000    0.18190   0.59560   0.23080   Biso      1.000     O          -0.568063           
         O12       1.0000    0.32510   0.26030   0.88590   Biso      1.000     O          -0.547852           
         O13       1.0000    0.12390   0.18960   0.84850   Biso      1.000     O          -0.553652           
         O14       1.0000    0.27640   0.22810   0.05430   Biso      1.000     O          -0.492003           
         O15       1.0000    0.14620   0.39260   0.00110   Biso      1.000     O          -0.625893           
         O16       1.0000    0.99640   0.36440   0.14970   Biso      1.000     O          -0.549853           
         O17       1.0000    0.90830   0.22500   0.10360   Biso      1.000     O          -0.535412           
         O18       1.0000    0.37320   0.64550   0.30000   Biso      1.000     O          -0.521594           
         O19       1.0000    0.27040   0.40850   0.23100   Biso      1.000     O          -0.523118           
         O20       1.0000    0.32510   0.73970   0.11410   Biso      1.000     O          -0.547852           
         O21       1.0000    0.38320   0.50080   0.09340   Biso      1.000     O          -0.632844           
         O22       1.0000    0.65510   0.60070   0.77750   Biso      1.000     O          -0.553575           
         O23       1.0000    0.34490   0.10070   0.72250   Biso      1.000     O          -0.553575           
         O24       1.0000    0.81810   0.09560   0.26920   Biso      1.000     O          -0.568063           
         O25       1.0000    0.61680   0.99920   0.59340   Biso      1.000     O          -0.632844           
         O26       1.0000    0.55830   0.34210   0.10350   Biso      1.000     O          -0.542304           
         O27       1.0000    0.67490   0.76030   0.61410   Biso      1.000     O          -0.547852           
         O28       1.0000    0.87610   0.68960   0.65150   Biso      1.000     O          -0.553652           
         O29       1.0000    0.72360   0.72810   0.44570   Biso      1.000     O          -0.492003           
         O30       1.0000    0.85380   0.89260   0.49890   Biso      1.000     O          -0.625893           
         O31       1.0000    0.00360   0.86440   0.35030   Biso      1.000     O          -0.549853           
         O32       1.0000    0.09170   0.72500   0.39640   Biso      1.000     O          -0.535412           
         O33       1.0000    0.62680   0.14550   0.20000   Biso      1.000     O          -0.521594           
         O34       1.0000    0.72960   0.90850   0.26900   Biso      1.000     O          -0.523118           
         O35       1.0000    0.61680   0.00080   0.40660   Biso      1.000     O          -0.632843           
         O36       1.0000    0.44170   0.84210   0.39650   Biso      1.000     O          -0.542304           
         O37       1.0000    0.34490   0.89930   0.27750   Biso      1.000     O          -0.553575           
         O38       1.0000    0.67490   0.23970   0.38590   Biso      1.000     O          -0.547852           
         O39       1.0000    0.87610   0.31040   0.34850   Biso      1.000     O          -0.553652           
         O40       1.0000    0.72360   0.27190   0.55430   Biso      1.000     O          -0.492003           
         O41       1.0000    0.85380   0.10740   0.50110   Biso      1.000     O          -0.625893           
         O42       1.0000    0.00360   0.13560   0.64970   Biso      1.000     O          -0.549853           
         O43       1.0000    0.09170   0.27500   0.60360   Biso      1.000     O          -0.535412           
         O44       1.0000    0.81810   0.90440   0.73080   Biso      1.000     O          -0.568063           
         O45       1.0000    0.62680   0.85450   0.80000   Biso      1.000     O          -0.521594           
         O46       1.0000    0.72960   0.09150   0.73100   Biso      1.000     O          -0.523118           
         O47       1.0000    0.44170   0.15790   0.60350   Biso      1.000     O          -0.542304           
         O48       1.0000    0.65510   0.39930   0.22250   Biso      1.000     O          -0.553575 