
##########################################################################
#               Crystallographic Information Format file
#               Produced by PyCifRW module
#
#  This is a CIF file.  CIF has been adopted by the International
#  Union of Crystallography as the standard for data archiving and
#  transmission.
#
#  For information on this file format, follow the CIF links at
#  http://www.iucr.org
##########################################################################

data_image0

_cell_length_a                          17.9643
_cell_length_b                          18.5924
_cell_length_c                          18.5924
_cell_angle_alpha                       120
_cell_angle_beta                        90
_cell_angle_gamma                       90
_symmetry_space_group_name_H-M          'P 1'
_symmetry_int_tables_number             1
loop_
  _symmetry_equiv_pos_as_xyz
         'x, y, z' 
loop_
  _atom_site_label
  _atom_site_occupancy
  _atom_site_fract_x
  _atom_site_fract_y
  _atom_site_fract_z
  _atom_site_thermal_displace_type
  _atom_site_B_iso_or_equiv
  _atom_site_type_symbol
  _atom_site_charge
         C1        1.0000    0.87210   0.07390   0.81430   Biso      1.000     C          -0.108128           
         C2        1.0000    0.58830   0.69310   0.50120   Biso      1.000     C          0.574978  
         C3        1.0000    0.79520   0.07400   0.83140   Biso      1.000     C          -0.031251           
         C4        1.0000    0.75420   0.15540   0.87800   Biso      1.000     C          0.641493  
         C5        1.0000    0.08530   0.25490   0.59980   Biso      1.000     C          -0.125307           
         C6        1.0000    0.08710   0.26690   0.67990   Biso      1.000     C          -0.003963           
         C7        1.0000    0.08830   0.19190   0.69310   Biso      1.000     C          0.574981  
         C8        1.0000    0.87210   0.74040   0.92610   Biso      1.000     C          -0.10813  
         C9        1.0000    0.79520   0.75740   0.92600   Biso      1.000     C          -0.031248           
         C10       1.0000    0.75420   0.72260   0.84460   Biso      1.000     C          0.641492  
         C11       1.0000    0.08530   0.34490   0.74510   Biso      1.000     C          -0.125288           
         C12       1.0000    0.08710   0.41300   0.73310   Biso      1.000     C          -0.003964           
         C13       1.0000    0.08830   0.50120   0.80810   Biso      1.000     C          0.574981  
         C14       1.0000    0.87210   0.18570   0.25960   Biso      1.000     C          -0.108129           
         C15       1.0000    0.79520   0.16860   0.24260   Biso      1.000     C          -0.031248           
         C16       1.0000    0.58710   0.67990   0.41300   Biso      1.000     C          -0.003961           
         C17       1.0000    0.75420   0.12200   0.27740   Biso      1.000     C          0.641493  
         C18       1.0000    0.08710   0.32010   0.58700   Biso      1.000     C          -0.003947           
         C19       1.0000    0.08830   0.30690   0.49880   Biso      1.000     C          0.57498   
         C20       1.0000    0.87210   0.25960   0.18570   Biso      1.000     C          -0.108128           
         C21       1.0000    0.79520   0.24260   0.16860   Biso      1.000     C          -0.031251           
         C22       1.0000    0.75420   0.27740   0.12200   Biso      1.000     C          0.641493  
         C23       1.0000    0.08710   0.58700   0.32010   Biso      1.000     C          -0.003961           
         C24       1.0000    0.08830   0.49880   0.30690   Biso      1.000     C          0.574981  
         C25       1.0000    0.87210   0.81430   0.07390   Biso      1.000     C          -0.108129           
         C26       1.0000    0.79520   0.83140   0.07400   Biso      1.000     C          -0.031249           
         C27       1.0000    0.75420   0.87800   0.15540   Biso      1.000     C          0.641492  
         C28       1.0000    0.08530   0.59980   0.25490   Biso      1.000     C          -0.12529  
         C29       1.0000    0.08710   0.67990   0.26690   Biso      1.000     C          -0.003965           
         C30       1.0000    0.08830   0.69310   0.19190   Biso      1.000     C          0.574981  
         C31       1.0000    0.87210   0.92610   0.74040   Biso      1.000     C          -0.10813  
         C32       1.0000    0.08530   0.40020   0.65510   Biso      1.000     C          -0.125291           
         C33       1.0000    0.58530   0.59980   0.34490   Biso      1.000     C          -0.125308           
         C34       1.0000    0.25420   0.87800   0.72260   Biso      1.000     C          0.641492  
         C35       1.0000    0.29520   0.83140   0.75740   Biso      1.000     C          -0.031249           
         C36       1.0000    0.75750   0.20140   0.20140   Biso      1.000     C          -0.104201           
         C37       1.0000    0.99180   0.24720   0.24720   Biso      1.000     C          0.63059   
         C38       1.0000    0.90890   0.22670   0.22670   Biso      1.000     C          -0.01902  
         C39       1.0000    0.75750   0.79860   0.00000   Biso      1.000     C          -0.104202           
         C40       1.0000    0.99180   0.75280   0.00000   Biso      1.000     C          0.63059   
         C41       1.0000    0.90890   0.77330   0.00000   Biso      1.000     C          -0.019019           
         C42       1.0000    0.75750   0.00000   0.79860   Biso      1.000     C          -0.104205           
         C43       1.0000    0.99180   0.00000   0.75280   Biso      1.000     C          0.63059   
         C44       1.0000    0.90890   0.00000   0.77330   Biso      1.000     C          -0.01902  
         C45       1.0000    0.25750   0.79860   0.79860   Biso      1.000     C          -0.104206           
         C46       1.0000    0.49180   0.75280   0.75280   Biso      1.000     C          0.630592  
         C47       1.0000    0.40890   0.77330   0.77330   Biso      1.000     C          -0.019042           
         C48       1.0000    0.25750   0.20140   0.00000   Biso      1.000     C          -0.104211           
         C49       1.0000    0.49180   0.24720   0.00000   Biso      1.000     C          0.630592  
         C50       1.0000    0.40890   0.22670   0.00000   Biso      1.000     C          -0.019042           
         C51       1.0000    0.25750   0.00000   0.20140   Biso      1.000     C          -0.10421  
         C52       1.0000    0.49180   0.00000   0.24720   Biso      1.000     C          0.630591  
         C53       1.0000    0.37210   0.81430   0.74040   Biso      1.000     C          -0.108116           
         C54       1.0000    0.58830   0.49880   0.19190   Biso      1.000     C          0.574979  
         C55       1.0000    0.58710   0.58700   0.26690   Biso      1.000     C          -0.003946           
         C56       1.0000    0.58530   0.65510   0.25490   Biso      1.000     C          -0.125309           
         C57       1.0000    0.25420   0.27740   0.15540   Biso      1.000     C          0.641492  
         C58       1.0000    0.29520   0.24260   0.07400   Biso      1.000     C          -0.031245           
         C59       1.0000    0.79520   0.92600   0.75740   Biso      1.000     C          -0.031243           
         C60       1.0000    0.37210   0.25960   0.07390   Biso      1.000     C          -0.108117           
         C61       1.0000    0.58710   0.73310   0.32010   Biso      1.000     C          -0.003947           
         C62       1.0000    0.58530   0.74510   0.40020   Biso      1.000     C          -0.125292           
         C63       1.0000    0.25420   0.84460   0.12200   Biso      1.000     C          0.641492  
         C64       1.0000    0.29520   0.92600   0.16860   Biso      1.000     C          -0.031247           
         C65       1.0000    0.37210   0.92610   0.18570   Biso      1.000     C          -0.108127           
         C66       1.0000    0.40890   0.00000   0.22670   Biso      1.000     C          -0.019031           
         C67       1.0000    0.58830   0.80810   0.30690   Biso      1.000     C          0.574978  
         C68       1.0000    0.75420   0.84460   0.72260   Biso      1.000     C          0.641492  
         C69       1.0000    0.08530   0.65510   0.40020   Biso      1.000     C          -0.125308           
         C70       1.0000    0.08710   0.73310   0.41300   Biso      1.000     C          -0.003948           
         C71       1.0000    0.08530   0.74510   0.34490   Biso      1.000     C          -0.125289           
         C72       1.0000    0.58830   0.19190   0.49880   Biso      1.000     C          0.574979  
         C73       1.0000    0.58710   0.26690   0.58700   Biso      1.000     C          -0.00396  
         C74       1.0000    0.58530   0.25490   0.65510   Biso      1.000     C          -0.125308           
         C75       1.0000    0.29520   0.07400   0.24260   Biso      1.000     C          -0.031244           
         C76       1.0000    0.37210   0.07390   0.25960   Biso      1.000     C          -0.108119           
         C77       1.0000    0.58830   0.30690   0.80810   Biso      1.000     C          0.574979  
         C78       1.0000    0.58710   0.32010   0.73310   Biso      1.000     C          -0.003947           
         C79       1.0000    0.58530   0.40020   0.74510   Biso      1.000     C          -0.125309           
         C80       1.0000    0.25420   0.15540   0.27740   Biso      1.000     C          0.641492  
         C81       1.0000    0.29520   0.75740   0.83140   Biso      1.000     C          -0.031248           
         C82       1.0000    0.29520   0.16860   0.92600   Biso      1.000     C          -0.031245           
         C83       1.0000    0.37210   0.18570   0.92610   Biso      1.000     C          -0.108117           
         C84       1.0000    0.58830   0.50120   0.69310   Biso      1.000     C          0.574978  
         C85       1.0000    0.58710   0.41300   0.67990   Biso      1.000     C          -0.003947           
         C86       1.0000    0.58530   0.34490   0.59980   Biso      1.000     C          -0.125291           
         C87       1.0000    0.25420   0.72260   0.87800   Biso      1.000     C          0.641493  
         C88       1.0000    0.08830   0.80810   0.50120   Biso      1.000     C          0.57498   
         C89       1.0000    0.37210   0.74040   0.81430   Biso      1.000     C          -0.108116           
         C90       1.0000    0.25420   0.12200   0.84460   Biso      1.000     C          0.641491  
         H1        1.0000    0.89710   0.83070   0.12360   Biso      1.000     H          0.130586  
         H2        1.0000    0.08280   0.64660   0.44540   Biso      1.000     H          0.131     
         H3        1.0000    0.58280   0.20120   0.64660   Biso      1.000     H          0.130999  
         H4        1.0000    0.08280   0.44540   0.64660   Biso      1.000     H          0.130998  
         H5        1.0000    0.89710   0.16930   0.29290   Biso      1.000     H          0.130585  
         H6        1.0000    0.89710   0.29290   0.16930   Biso      1.000     H          0.130585  
         H7        1.0000    0.08280   0.55460   0.20120   Biso      1.000     H          0.130998  
         H8        1.0000    0.39710   0.16930   0.87640   Biso      1.000     H          0.130585  
         H9        1.0000    0.39710   0.70710   0.83070   Biso      1.000     H          0.130584  
         H10       1.0000    0.58280   0.35340   0.55460   Biso      1.000     H          0.130997  
         H11       1.0000    0.58280   0.44540   0.79880   Biso      1.000     H          0.130999  
         H12       1.0000    0.39710   0.12360   0.29290   Biso      1.000     H          0.130584  
         H13       1.0000    0.08280   0.35340   0.79880   Biso      1.000     H          0.130997  
         H14       1.0000    0.89710   0.87640   0.70710   Biso      1.000     H          0.130585  
         H15       1.0000    0.89710   0.70710   0.87640   Biso      1.000     H          0.130585  
         H16       1.0000    0.08280   0.79880   0.35340   Biso      1.000     H          0.130997  
         H17       1.0000    0.89710   0.12360   0.83070   Biso      1.000     H          0.130585  
         H18       1.0000    0.08280   0.20120   0.55460   Biso      1.000     H          0.130999  
         H19       1.0000    0.70610   0.19570   0.19570   Biso      1.000     H          0.135531  
         H20       1.0000    0.70610   0.80430   0.00000   Biso      1.000     H          0.13553   
         H21       1.0000    0.70610   0.00000   0.80430   Biso      1.000     H          0.13553   
         H22       1.0000    0.20610   0.19570   0.00000   Biso      1.000     H          0.135531  
         H23       1.0000    0.20610   0.00000   0.19570   Biso      1.000     H          0.135531  
         H24       1.0000    0.20610   0.80430   0.80430   Biso      1.000     H          0.135532  
         H25       1.0000    0.58280   0.79880   0.44540   Biso      1.000     H          0.130999  
         H26       1.0000    0.39710   0.29290   0.12360   Biso      1.000     H          0.130584  
         H27       1.0000    0.58280   0.64660   0.20120   Biso      1.000     H          0.130999  
         H28       1.0000    0.39710   0.83070   0.70710   Biso      1.000     H          0.130584  
         H29       1.0000    0.58280   0.55460   0.35340   Biso      1.000     H          0.130998  
         H30       1.0000    0.39710   0.87640   0.16930   Biso      1.000     H          0.130585  
         O1        1.0000    0.10910   0.55640   0.79260   Biso      1.000     O          -0.546208           
         O2        1.0000    0.07510   0.12410   0.63800   Biso      1.000     O          -0.423547           
         O3        1.0000    0.10910   0.20740   0.76380   Biso      1.000     O          -0.546207           
         O4        1.0000    0.02110   0.71350   0.93170   Biso      1.000     O          -0.534771           
         O5        1.0000    0.68450   0.72630   0.84880   Biso      1.000     O          -0.525342           
         O6        1.0000    0.78960   0.68960   0.77960   Biso      1.000     O          -0.579186           
         O7        1.0000    0.07510   0.51390   0.87590   Biso      1.000     O          -0.423548           
         O8        1.0000    0.02110   0.21820   0.28650   Biso      1.000     O          -0.534771           
         O9        1.0000    0.68450   0.27370   0.12250   Biso      1.000     O          -0.525341           
         O10       1.0000    0.78960   0.09000   0.31040   Biso      1.000     O          -0.579188           
         O11       1.0000    0.07510   0.36200   0.48610   Biso      1.000     O          -0.423548           
         O12       1.0000    0.10910   0.23620   0.44360   Biso      1.000     O          -0.546206           
         O13       1.0000    0.02110   0.28650   0.21820   Biso      1.000     O          -0.534771           
         O14       1.0000    0.78960   0.22040   0.91000   Biso      1.000     O          -0.579189           
         O15       1.0000    0.78960   0.31040   0.09000   Biso      1.000     O          -0.579188           
         O16       1.0000    0.07510   0.48610   0.36200   Biso      1.000     O          -0.423546           
         O17       1.0000    0.10910   0.44360   0.23620   Biso      1.000     O          -0.546207           
         O18       1.0000    0.68450   0.12250   0.27370   Biso      1.000     O          -0.525342           
         O19       1.0000    0.68450   0.15120   0.87750   Biso      1.000     O          -0.525341           
         O20       1.0000    0.52110   0.93170   0.21820   Biso      1.000     O          -0.534771           
         O21       1.0000    0.60910   0.76380   0.55640   Biso      1.000     O          -0.546206           
         O22       1.0000    0.57510   0.63800   0.51390   Biso      1.000     O          -0.423541           
         O23       1.0000    0.02110   0.78180   0.06830   Biso      1.000     O          -0.534771           
         O24       1.0000    0.28960   0.91000   0.68960   Biso      1.000     O          -0.579188           
         O25       1.0000    0.18450   0.87750   0.72630   Biso      1.000     O          -0.525341           
         O26       1.0000    0.52110   0.78180   0.71350   Biso      1.000     O          -0.534771           
         O27       1.0000    0.60910   0.44360   0.20740   Biso      1.000     O          -0.546208           
         O28       1.0000    0.57510   0.48610   0.12410   Biso      1.000     O          -0.423546           
         O29       1.0000    0.28960   0.31040   0.22040   Biso      1.000     O          -0.579186           
         O30       1.0000    0.02110   0.06830   0.78180   Biso      1.000     O          -0.534771           
         O31       1.0000    0.18450   0.27370   0.15120   Biso      1.000     O          -0.525343           
         O32       1.0000    0.60910   0.79260   0.23620   Biso      1.000     O          -0.546207           
         O33       1.0000    0.57510   0.87590   0.36200   Biso      1.000     O          -0.423543           
         O34       1.0000    0.28960   0.77960   0.09000   Biso      1.000     O          -0.579189           
         O35       1.0000    0.18450   0.84880   0.12250   Biso      1.000     O          -0.525341           
         O36       1.0000    0.66200   0.00000   0.33960   Biso      1.000     O          -0.805322           
         O37       1.0000    0.66200   0.33960   0.00000   Biso      1.000     O          -0.805322           
         O38       1.0000    0.66200   0.66040   0.66040   Biso      1.000     O          -0.805323           
         O39       1.0000    0.16200   0.00000   0.66040   Biso      1.000     O          -0.80532  
         O40       1.0000    0.52110   0.28650   0.06830   Biso      1.000     O          -0.534771           
         O41       1.0000    0.68450   0.87750   0.15120   Biso      1.000     O          -0.525342           
         O42       1.0000    0.16200   0.33960   0.33960   Biso      1.000     O          -0.805321           
         O43       1.0000    0.07510   0.63800   0.12410   Biso      1.000     O          -0.423549           
         O44       1.0000    0.16200   0.66040   0.00000   Biso      1.000     O          -0.805323           
         O45       1.0000    0.60910   0.20740   0.44360   Biso      1.000     O          -0.546209           
         O46       1.0000    0.78960   0.91000   0.22040   Biso      1.000     O          -0.579189           
         O47       1.0000    0.28960   0.22040   0.31040   Biso      1.000     O          -0.579186           
         O48       1.0000    0.18450   0.15120   0.27370   Biso      1.000     O          -0.525342           
         O49       1.0000    0.52110   0.06830   0.28650   Biso      1.000     O          -0.534771           
         O50       1.0000    0.60910   0.23620   0.79260   Biso      1.000     O          -0.546206           
         O51       1.0000    0.57510   0.36200   0.87590   Biso      1.000     O          -0.423546           
         O52       1.0000    0.28960   0.09000   0.77960   Biso      1.000     O          -0.579189           
         O53       1.0000    0.18450   0.12250   0.84880   Biso      1.000     O          -0.525341           
         O54       1.0000    0.52110   0.21820   0.93170   Biso      1.000     O          -0.534771           
         O55       1.0000    0.57510   0.12410   0.48610   Biso      1.000     O          -0.423543           
         O56       1.0000    0.57510   0.51390   0.63800   Biso      1.000     O          -0.423545           
         O57       1.0000    0.60910   0.55640   0.76380   Biso      1.000     O          -0.546205           
         O58       1.0000    0.02110   0.93170   0.71350   Biso      1.000     O          -0.534771           
         O59       1.0000    0.68450   0.84880   0.72630   Biso      1.000     O          -0.525343           
         O60       1.0000    0.78960   0.77960   0.68960   Biso      1.000     O          -0.579186           
         O61       1.0000    0.10910   0.76380   0.20740   Biso      1.000     O          -0.546206           
         O62       1.0000    0.10910   0.79260   0.55640   Biso      1.000     O          -0.546208           
         O63       1.0000    0.52110   0.71350   0.78180   Biso      1.000     O          -0.534771           
         O64       1.0000    0.18450   0.72630   0.87750   Biso      1.000     O          -0.525341           
         O65       1.0000    0.28960   0.68960   0.91000   Biso      1.000     O          -0.579189           
         O66       1.0000    0.07510   0.87590   0.51390   Biso      1.000     O          -0.423549           
         Zn1       1.0000    0.11933   0.65779   0.90074   Biso      1.000     Zn          0.959997  
         Zn2       1.0000    0.61933   0.24295   0.90074   Biso      1.000     Zn          0.959995  
         Zn3       1.0000    0.61933   0.65779   0.75705   Biso      1.000     Zn          0.959995  
         Zn4       1.0000    0.11933   0.90074   0.65779   Biso      1.000     Zn          0.959997  
         Zn5       1.0000    0.11933   0.75705   0.09926   Biso      1.000     Zn          0.959996  
         Zn6       1.0000    0.11933   0.34221   0.24295   Biso      1.000     Zn          0.959996  
         Zn7       1.0000    0.11933   0.24295   0.34221   Biso      1.000     Zn          0.959995  
         Zn8       1.0000    0.11933   0.09926   0.75705   Biso      1.000     Zn          0.959995  
         Zn9       1.0000    0.27654   0.00000   0.65585   Biso      1.000     Zn          1.041691  
         Zn10      1.0000    0.61933   0.34221   0.09926   Biso      1.000     Zn          0.959996  
         Zn11      1.0000    0.61933   0.90074   0.24295   Biso      1.000     Zn          0.959995  
         Zn12      1.0000    0.27654   0.34415   0.34415   Biso      1.000     Zn          1.041686  
         Zn13      1.0000    0.27654   0.65585   0.00000   Biso      1.000     Zn          1.041694  
         Zn14      1.0000    0.77654   0.65585   0.65585   Biso      1.000     Zn          1.041686  
         Zn15      1.0000    0.77654   0.00000   0.34415   Biso      1.000     Zn          1.04169   
         Zn16      1.0000    0.77654   0.34415   0.00000   Biso      1.000     Zn          1.041688  
         Zn17      1.0000    0.61933   0.75705   0.65779   Biso      1.000     Zn          0.959996  
         Zn18      1.0000    0.61933   0.09926   0.34221   Biso      1.000     Zn          0.959997 