
##########################################################################
#               Crystallographic Information Format file
#               Produced by PyCifRW module
#
#  This is a CIF file.  CIF has been adopted by the International
#  Union of Crystallography as the standard for data archiving and
#  transmission.
#
#  For information on this file format, follow the CIF links at
#  http://www.iucr.org
##########################################################################

data_image0

_cell_length_a                          12.186
_cell_length_b                          16.7342
_cell_length_c                          27.629
_cell_angle_alpha                       106.971
_cell_angle_beta                        90
_cell_angle_gamma                       111.353
_symmetry_space_group_name_H-M          'P 1'
_symmetry_int_tables_number             1
loop_
  _symmetry_equiv_pos_as_xyz
         'x, y, z' 
loop_
  _atom_site_label
  _atom_site_occupancy
  _atom_site_fract_x
  _atom_site_fract_y
  _atom_site_fract_z
  _atom_site_thermal_displace_type
  _atom_site_B_iso_or_equiv
  _atom_site_type_symbol
  _atom_site_charge
         C1        1.0000    0.94520   0.64660   0.04818   Biso      1.000     C          -0.107668           
         C2        1.0000    0.06280   0.65140   0.12620   Biso      1.000     C          0.58867   
         C3        1.0000    0.83105   0.85010   0.13900   Biso      1.000     C          0.568738  
         C4        1.0000    0.82985   0.63310   0.96952   Biso      1.000     C          0.632656  
         C5        1.0000    0.98711   0.68642   0.10085   Biso      1.000     C          -0.017255           
         C6        1.0000    0.95262   0.75484   0.12982   Biso      1.000     C          -0.10250999999999999          
         C7        1.0000    0.87417   0.78274   0.10750   Biso      1.000     C          -0.017659           
         C8        1.0000    0.83714   0.74308   0.05460   Biso      1.000     C          -0.127947           
         C9        1.0000    0.87126   0.67572   0.02597   Biso      1.000     C          -0.032361           
         C10       1.0000    0.80348   0.13396   0.23810   Biso      1.000     C          0.625217  
         C11       1.0000    0.04445   0.38250   0.16836   Biso      1.000     C          0.617154  
         C12       1.0000    0.81025   0.44690   0.31372   Biso      1.000     C          0.616999  
         C13       1.0000    0.81001   0.29102   0.27363   Biso      1.000     C          -0.094346           
         C14       1.0000    0.84500   0.23080   0.23790   Biso      1.000     C          -0.021664           
         C15       1.0000    0.92192   0.26004   0.20339   Biso      1.000     C          -0.08995800000000001          
         C16       1.0000    0.95982   0.34984   0.20443   Biso      1.000     C          -0.019281           
         C17       1.0000    0.92315   0.41070   0.23911   Biso      1.000     C          -0.098687           
         C18       1.0000    0.84660   0.38100   0.27460   Biso      1.000     C          -0.032954000000000004         
         C19       1.0000    0.01905   0.85010   0.63900   Biso      1.000     C          0.56821   
         C20       1.0000    0.80325   0.63310   0.46952   Biso      1.000     C          0.634077  
         C21       1.0000    0.70140   0.64660   0.54818   Biso      1.000     C          -0.10718699999999999          
         C22       1.0000    0.69931   0.68642   0.60085   Biso      1.000     C          -0.018403           
         C23       1.0000    0.80222   0.75484   0.62982   Biso      1.000     C          -0.101778           
         C24       1.0000    0.90857   0.78274   0.60750   Biso      1.000     C          -0.016719           
         C25       1.0000    0.53440   0.38100   0.77460   Biso      1.000     C          -0.033788           
         C26       1.0000    0.90594   0.74308   0.55460   Biso      1.000     C          -0.130115           
         C27       1.0000    0.48755   0.41070   0.73911   Biso      1.000     C          -0.101008           
         C28       1.0000    0.33812   0.26004   0.70339   Biso      1.000     C          -0.08895700000000001          
         C29       1.0000    0.19652   0.86604   0.76190   Biso      1.000     C          0.625217  
         C30       1.0000    0.95555   0.61750   0.83164   Biso      1.000     C          0.617154  
         C31       1.0000    0.18975   0.55310   0.68628   Biso      1.000     C          0.616999  
         C32       1.0000    0.18999   0.70898   0.72637   Biso      1.000     C          -0.094346           
         C33       1.0000    0.15500   0.76920   0.76210   Biso      1.000     C          -0.021664           
         C34       1.0000    0.07808   0.73996   0.79661   Biso      1.000     C          -0.08995800000000001          
         C35       1.0000    0.04018   0.65016   0.79557   Biso      1.000     C          -0.019281           
         C36       1.0000    0.07685   0.58930   0.76089   Biso      1.000     C          -0.098687           
         C37       1.0000    0.15340   0.61900   0.72540   Biso      1.000     C          -0.032954000000000004         
         C38       1.0000    0.41140   0.34860   0.37380   Biso      1.000     C          0.587447  
         C39       1.0000    0.98095   0.14990   0.36100   Biso      1.000     C          0.56821   
         C40       1.0000    0.19675   0.36690   0.53048   Biso      1.000     C          0.634077  
         C41       1.0000    0.29860   0.35340   0.45182   Biso      1.000     C          -0.10718699999999999          
         C42       1.0000    0.30069   0.31358   0.39915   Biso      1.000     C          -0.018403           
         C43       1.0000    0.19778   0.24516   0.37018   Biso      1.000     C          -0.101778           
         C44       1.0000    0.09143   0.21726   0.39250   Biso      1.000     C          -0.016719           
         C45       1.0000    0.09406   0.25692   0.44540   Biso      1.000     C          -0.130115           
         C46       1.0000    0.19554   0.32428   0.47403   Biso      1.000     C          -0.032659           
         C47       1.0000    0.33048   0.13396   0.73810   Biso      1.000     C          0.626595  
         C48       1.0000    0.33805   0.38250   0.66836   Biso      1.000     C          0.6159680000000001  
         C49       1.0000    0.63665   0.44690   0.81372   Biso      1.000     C          0.6165109999999999  
         C50       1.0000    0.48101   0.29102   0.77363   Biso      1.000     C          -0.10369600000000001          
         C51       1.0000    0.38580   0.23080   0.73790   Biso      1.000     C          -0.022959999999999998         
         C52       1.0000    0.39002   0.34984   0.70443   Biso      1.000     C          -0.018368000000000002         
         C53       1.0000    0.80446   0.67572   0.52597   Biso      1.000     C          -0.032659           
         C54       1.0000    0.58860   0.65140   0.62620   Biso      1.000     C          0.587447  
         C55       1.0000    0.66195   0.61750   0.33164   Biso      1.000     C          0.6159680000000001  
         C56       1.0000    0.66952   0.86604   0.26190   Biso      1.000     C          0.626595  
         C57       1.0000    0.12874   0.32428   0.97403   Biso      1.000     C          -0.032365           
         C58       1.0000    0.16286   0.25692   0.94540   Biso      1.000     C          -0.127942           
         C59       1.0000    0.12583   0.21726   0.89250   Biso      1.000     C          -0.01766  
         C60       1.0000    0.01289   0.31358   0.89915   Biso      1.000     C          -0.017255           
         C61       1.0000    0.05480   0.35340   0.95182   Biso      1.000     C          -0.107668           
         C62       1.0000    0.17015   0.36690   0.03048   Biso      1.000     C          0.632656  
         C63       1.0000    0.16895   0.14990   0.86100   Biso      1.000     C          0.568738  
         C64       1.0000    0.04738   0.24516   0.87018   Biso      1.000     C          -0.10250999999999999          
         C65       1.0000    0.46560   0.61900   0.22540   Biso      1.000     C          -0.033788           
         C66       1.0000    0.51245   0.58930   0.26089   Biso      1.000     C          -0.101008           
         C67       1.0000    0.60998   0.65016   0.29557   Biso      1.000     C          -0.018368000000000002         
         C68       1.0000    0.66188   0.73996   0.29661   Biso      1.000     C          -0.088956           
         C69       1.0000    0.61420   0.76920   0.26210   Biso      1.000     C          -0.022962           
         C70       1.0000    0.51899   0.70898   0.22637   Biso      1.000     C          -0.10369400000000001          
         C71       1.0000    0.93720   0.34860   0.87380   Biso      1.000     C          0.58867   
         C72       1.0000    0.36335   0.55310   0.18628   Biso      1.000     C          0.6165109999999999  
         H1        1.0000    0.21090   0.23720   0.96110   Biso      1.000     H          0.125493  
         H2        1.0000    0.94750   0.21980   0.18000   Biso      1.000     H          0.13728800000000002           
         H3        1.0000    0.94820   0.47040   0.23920   Biso      1.000     H          0.13878   
         H4        1.0000    0.63340   0.60080   0.52850   Biso      1.000     H          0.135995  
         H5        1.0000    0.97370   0.76280   0.53890   Biso      1.000     H          0.126649  
         H6        1.0000    0.03260   0.39920   0.97150   Biso      1.000     H          0.135674  
         H7        1.0000    0.72770   0.78020   0.32000   Biso      1.000     H          0.13693   
         H8        1.0000    0.47780   0.52960   0.26080   Biso      1.000     H          0.13956   
         H9        1.0000    0.01850   0.21760   0.83580   Biso      1.000     H          0.135007  
         H10       1.0000    0.76160   0.27160   0.29730   Biso      1.000     H          0.14043599999999998           
         H11       1.0000    0.49000   0.72840   0.20270   Biso      1.000     H          0.15373299999999998           
         H12       1.0000    0.78910   0.76280   0.03890   Biso      1.000     H          0.125493  
         H13       1.0000    0.80090   0.78240   0.66420   Biso      1.000     H          0.134626  
         H14       1.0000    0.96740   0.60080   0.02850   Biso      1.000     H          0.135674  
         H15       1.0000    0.52220   0.47040   0.73920   Biso      1.000     H          0.13956   
         H16       1.0000    0.27230   0.21980   0.68000   Biso      1.000     H          0.13693   
         H17       1.0000    0.51000   0.27160   0.79730   Biso      1.000     H          0.15373299999999998           
         H18       1.0000    0.02630   0.23720   0.46110   Biso      1.000     H          0.126649  
         H19       1.0000    0.19910   0.21760   0.33580   Biso      1.000     H          0.134625  
         H20       1.0000    0.36660   0.39920   0.47150   Biso      1.000     H          0.135995  
         H21       1.0000    0.05180   0.52960   0.76080   Biso      1.000     H          0.13878   
         H22       1.0000    0.05250   0.78020   0.82000   Biso      1.000     H          0.137287  
         H23       1.0000    0.23840   0.72840   0.70270   Biso      1.000     H          0.14043599999999998           
         H24       1.0000    0.98150   0.78240   0.16420   Biso      1.000     H          0.135007  
         O1        1.0000    0.09153   0.59046   0.09542   Biso      1.000     O          -0.5805100000000001           
         O2        1.0000    0.08800   0.68100   0.17182   Biso      1.000     O          -0.552535           
         O3        1.0000    0.86956   0.88832   0.18693   Biso      1.000     O          -0.563141           
         O4        1.0000    0.75286   0.86792   0.11915   Biso      1.000     O          -0.5638350000000001           
         O5        1.0000    0.77596   0.66852   0.94910   Biso      1.000     O          -0.574458           
         O6        1.0000    0.06093   0.46066   0.16616   Biso      1.000     O          -0.522316           
         O7        1.0000    0.74594   0.11448   0.27409   Biso      1.000     O          -0.588237           
         O8        1.0000    0.82243   0.07766   0.20057   Biso      1.000     O          -0.522115           
         O9        1.0000    0.09480   0.33080   0.14303   Biso      1.000     O          -0.60839  
         O10       1.0000    0.67821   0.41642   0.84325   Biso      1.000     O          -0.528687           
         O11       1.0000    0.85376   0.52792   0.31492   Biso      1.000     O          -0.582594           
         O12       1.0000    0.85021   0.56342   0.94734   Biso      1.000     O          -0.5403100000000001           
         O13       1.0000    0.67416   0.52792   0.81492   Biso      1.000     O          -0.582375           
         O14       1.0000    0.26179   0.58358   0.65675   Biso      1.000     O          -0.528341           
         O15       1.0000    0.23600   0.33080   0.64303   Biso      1.000     O          -0.608337           
         O16       1.0000    0.90520   0.66920   0.85697   Biso      1.000     O          -0.60839  
         O17       1.0000    0.93907   0.53934   0.83384   Biso      1.000     O          -0.522316           
         O18       1.0000    0.14624   0.47208   0.68508   Biso      1.000     O          -0.582594           
         O19       1.0000    0.50107   0.40954   0.40458   Biso      1.000     O          -0.579196           
         O20       1.0000    0.40700   0.31900   0.32818   Biso      1.000     O          -0.5525140000000001           
         O21       1.0000    0.98124   0.11168   0.31307   Biso      1.000     O          -0.562685           
         O22       1.0000    0.88494   0.13208   0.38085   Biso      1.000     O          -0.563783           
         O23       1.0000    0.10744   0.33148   0.55090   Biso      1.000     O          -0.574595           
         O24       1.0000    0.28679   0.43658   0.55266   Biso      1.000     O          -0.5414439999999999           
         O25       1.0000    0.36854   0.11448   0.77409   Biso      1.000     O          -0.589061           
         O26       1.0000    0.73821   0.41642   0.34325   Biso      1.000     O          -0.528341           
         O27       1.0000    0.25523   0.07766   0.70057   Biso      1.000     O          -0.5233369999999999           
         O28       1.0000    0.39973   0.46066   0.66616   Biso      1.000     O          -0.521857           
         O29       1.0000    0.49893   0.59046   0.59542   Biso      1.000     O          -0.579196           
         O30       1.0000    0.25406   0.88552   0.72591   Biso      1.000     O          -0.588237           
         O31       1.0000    0.01876   0.88832   0.68693   Biso      1.000     O          -0.562685           
         O32       1.0000    0.17757   0.92234   0.79943   Biso      1.000     O          -0.522115           
         O33       1.0000    0.14979   0.43658   0.05266   Biso      1.000     O          -0.540309           
         O34       1.0000    0.59300   0.68100   0.67182   Biso      1.000     O          -0.5525140000000001           
         O35       1.0000    0.24714   0.13208   0.88085   Biso      1.000     O          -0.5638350000000001           
         O36       1.0000    0.13044   0.11168   0.81307   Biso      1.000     O          -0.563141           
         O37       1.0000    0.91200   0.31900   0.82818   Biso      1.000     O          -0.552535           
         O38       1.0000    0.90847   0.40954   0.90458   Biso      1.000     O          -0.5805100000000001           
         O39       1.0000    0.32179   0.58358   0.15675   Biso      1.000     O          -0.528687           
         O40       1.0000    0.22404   0.33148   0.05090   Biso      1.000     O          -0.574458           
         O41       1.0000    0.60027   0.53934   0.33384   Biso      1.000     O          -0.521857           
         O42       1.0000    0.76400   0.66920   0.35697   Biso      1.000     O          -0.608337           
         O43       1.0000    0.74477   0.92234   0.29943   Biso      1.000     O          -0.5233369999999999           
         O44       1.0000    0.63146   0.88552   0.22591   Biso      1.000     O          -0.589061           
         O45       1.0000    0.71321   0.56342   0.44734   Biso      1.000     O          -0.541443           
         O46       1.0000    0.89256   0.66852   0.44910   Biso      1.000     O          -0.574595           
         O47       1.0000    0.11506   0.86792   0.61915   Biso      1.000     O          -0.563783           
         O48       1.0000    0.32584   0.47208   0.18508   Biso      1.000     O          -0.582375           
         Zn1       1.0000    0.26789   0.35918   0.12460   Biso      1.000     Zn          1.079175  
         Zn2       1.0000    0.28485   0.05058   0.82039   Biso      1.000     Zn          1.003862  
         Zn3       1.0000    0.63749   0.47898   0.37887   Biso      1.000     Zn          0.9441120000000001  
         Zn4       1.0000    0.90871   0.64082   0.37540   Biso      1.000     Zn          1.0795059999999999  
         Zn5       1.0000    0.23427   0.94942   0.67961   Biso      1.000     Zn          1.0037639999999999  
         Zn6       1.0000    0.36251   0.52102   0.62113   Biso      1.000     Zn          0.9441120000000001  
         Zn7       1.0000    0.73211   0.64082   0.87540   Biso      1.000     Zn          1.079175  
         Zn8       1.0000    0.71515   0.94942   0.17961   Biso      1.000     Zn          1.003863  
         Zn9       1.0000    0.09129   0.35918   0.62460   Biso      1.000     Zn          1.079507  
         Zn10      1.0000    0.76573   0.05058   0.32039   Biso      1.000     Zn          1.003763  
         Zn11      1.0000    0.84149   0.47898   0.87887   Biso      1.000     Zn          0.943751  
         Zn12      1.0000    0.15851   0.52102   0.12113   Biso      1.000     Zn          0.943751 