
##########################################################################
#               Crystallographic Information Format file
#               Produced by PyCifRW module
#
#  This is a CIF file.  CIF has been adopted by the International
#  Union of Crystallography as the standard for data archiving and
#  transmission.
#
#  For information on this file format, follow the CIF links at
#  http://www.iucr.org
##########################################################################

data_image0

_cell_length_a                          12.104
_cell_length_b                          18.06
_cell_length_c                          31.65
_cell_angle_alpha                       90.48
_cell_angle_beta                        90
_cell_angle_gamma                       90
_symmetry_space_group_name_H-M          'P 1'
_symmetry_int_tables_number             1
loop_
  _symmetry_equiv_pos_as_xyz
         'x, y, z' 
loop_
  _atom_site_label
  _atom_site_occupancy
  _atom_site_fract_x
  _atom_site_fract_y
  _atom_site_fract_z
  _atom_site_thermal_displace_type
  _atom_site_B_iso_or_equiv
  _atom_site_type_symbol
  _atom_site_charge
         C1        1.0000    0.26830   0.52870   0.67610   Biso      1.000     C          -0.010377           
         C2        1.0000    0.11270   0.24670   0.96680   Biso      1.000     C          -0.101795           
         C3        1.0000    0.11330   0.11020   0.96620   Biso      1.000     C          0.606562  
         C4        1.0000    0.35390   0.25430   0.86750   Biso      1.000     C          0.623767  
         C5        1.0000    0.10250   0.38300   0.97190   Biso      1.000     C          0.625806  
         C6        1.0000    0.22540   0.99240   0.67030   Biso      1.000     C          -0.021754           
         C7        1.0000    0.27980   0.04130   0.69890   Biso      1.000     C          -0.095218           
         C8        1.0000    0.36810   0.08730   0.68490   Biso      1.000     C          -0.039831           
         C9        1.0000    0.15080   0.31540   0.95370   Biso      1.000     C          -0.021133           
         C10       1.0000    0.40410   0.08180   0.64320   Biso      1.000     C          -0.084842           
         C11       1.0000    0.26290   0.98400   0.62770   Biso      1.000     C          -0.091597           
         C12       1.0000    0.13410   0.94590   0.68440   Biso      1.000     C          0.577978  
         C13       1.0000    0.42450   0.13620   0.71250   Biso      1.000     C          0.637652  
         C14       1.0000    0.39650   0.01990   0.57070   Biso      1.000     C          0.640939  
         C15       1.0000    0.30330   0.52810   0.63500   Biso      1.000     C          -0.105432           
         C16       1.0000    0.39080   0.47950   0.62190   Biso      1.000     C          -0.016728           
         C17       1.0000    0.43490   0.43270   0.65010   Biso      1.000     C          -0.105645           
         C18       1.0000    0.35160   0.02830   0.61470   Biso      1.000     C          -0.040628           
         C19       1.0000    0.23240   0.32140   0.92140   Biso      1.000     C          -0.097217           
         C20       1.0000    0.26800   0.25050   0.90290   Biso      1.000     C          -0.031441           
         C21       1.0000    0.24210   0.18460   0.91850   Biso      1.000     C          -0.116148           
         C22       1.0000    0.22020   0.04130   0.19890   Biso      1.000     C          -0.095218           
         C23       1.0000    0.13190   0.08730   0.18490   Biso      1.000     C          -0.039832           
         C24       1.0000    0.09590   0.08180   0.14320   Biso      1.000     C          -0.084842           
         C25       1.0000    0.14840   0.02830   0.11470   Biso      1.000     C          -0.040629           
         C26       1.0000    0.23710   0.98400   0.12770   Biso      1.000     C          -0.091597           
         C27       1.0000    0.36590   0.94590   0.18440   Biso      1.000     C          0.577974  
         C28       1.0000    0.07550   0.13620   0.21250   Biso      1.000     C          0.637651  
         C29       1.0000    0.10350   0.01990   0.07070   Biso      1.000     C          0.640939  
         C30       1.0000    0.23170   0.52870   0.17610   Biso      1.000     C          -0.010377           
         C31       1.0000    0.19670   0.52810   0.13500   Biso      1.000     C          -0.105432           
         C32       1.0000    0.10920   0.47950   0.12190   Biso      1.000     C          -0.016729           
         C33       1.0000    0.10110   0.43030   0.19290   Biso      1.000     C          -0.02907  
         C34       1.0000    0.18230   0.47970   0.20630   Biso      1.000     C          -0.10311  
         C35       1.0000    0.32450   0.58070   0.19070   Biso      1.000     C          0.577481  
         C36       1.0000    0.06610   0.48180   0.07690   Biso      1.000     C          0.616631  
         C37       1.0000    0.04830   0.37790   0.22250   Biso      1.000     C          0.626092  
         C38       1.0000    0.15530   0.18200   0.95110   Biso      1.000     C          -0.017805           
         C39       1.0000    0.39890   0.43030   0.69290   Biso      1.000     C          -0.02907  
         C40       1.0000    0.27460   0.99240   0.17030   Biso      1.000     C          -0.021753           
         C41       1.0000    0.31770   0.47970   0.70630   Biso      1.000     C          -0.10311  
         C42       1.0000    0.43390   0.48180   0.57690   Biso      1.000     C          0.616631  
         C43       1.0000    0.89080   0.52050   0.87810   Biso      1.000     C          -0.016727           
         C44       1.0000    0.93490   0.56730   0.84990   Biso      1.000     C          -0.105645           
         C45       1.0000    0.89890   0.56970   0.80710   Biso      1.000     C          -0.029071           
         C46       1.0000    0.81770   0.52030   0.79370   Biso      1.000     C          -0.103111           
         C47       1.0000    0.67550   0.41930   0.80930   Biso      1.000     C          0.57748   
         C48       1.0000    0.93390   0.51820   0.92310   Biso      1.000     C          0.616631  
         C49       1.0000    0.95170   0.62210   0.77750   Biso      1.000     C          0.626092  
         C50       1.0000    0.80330   0.47190   0.86500   Biso      1.000     C          -0.105438           
         C51       1.0000    0.84470   0.81800   0.04890   Biso      1.000     C          -0.017813           
         C52       1.0000    0.73200   0.74950   0.09710   Biso      1.000     C          -0.031442           
         C53       1.0000    0.76760   0.67860   0.07860   Biso      1.000     C          -0.097217           
         C54       1.0000    0.84920   0.68460   0.04630   Biso      1.000     C          -0.021136           
         C55       1.0000    0.88730   0.75330   0.03320   Biso      1.000     C          -0.101785           
         C56       1.0000    0.88670   0.88980   0.03380   Biso      1.000     C          0.606563  
         C57       1.0000    0.64610   0.74570   0.13250   Biso      1.000     C          0.623768  
         C58       1.0000    0.89750   0.61700   0.02810   Biso      1.000     C          0.625806  
         C59       1.0000    0.75790   0.81540   0.08150   Biso      1.000     C          -0.116147           
         C60       1.0000    0.76830   0.47130   0.82390   Biso      1.000     C          -0.010371           
         C61       1.0000    0.89650   0.98010   0.92930   Biso      1.000     C          0.640939  
         C62       1.0000    0.92450   0.86380   0.78750   Biso      1.000     C          0.637652  
         C63       1.0000    0.45170   0.37790   0.72250   Biso      1.000     C          0.626091  
         C64       1.0000    0.34470   0.18200   0.45110   Biso      1.000     C          -0.01781  
         C65       1.0000    0.25790   0.18460   0.41850   Biso      1.000     C          -0.116185           
         C66       1.0000    0.23200   0.25050   0.40290   Biso      1.000     C          -0.031404           
         C67       1.0000    0.26760   0.32140   0.42140   Biso      1.000     C          -0.097221           
         C68       1.0000    0.34920   0.31540   0.45370   Biso      1.000     C          -0.021135           
         C69       1.0000    0.38730   0.24670   0.46680   Biso      1.000     C          -0.101786           
         C70       1.0000    0.38670   0.11020   0.46620   Biso      1.000     C          0.606563  
         C71       1.0000    0.14610   0.25430   0.36750   Biso      1.000     C          0.623764  
         C72       1.0000    0.39750   0.38300   0.47190   Biso      1.000     C          0.625806  
         C73       1.0000    0.72540   0.00760   0.82970   Biso      1.000     C          -0.021754           
         C74       1.0000    0.77980   0.95870   0.80110   Biso      1.000     C          -0.095218           
         C75       1.0000    0.86810   0.91270   0.81510   Biso      1.000     C          -0.039831           
         C76       1.0000    0.90410   0.91820   0.85680   Biso      1.000     C          -0.084842           
         C77       1.0000    0.85160   0.97170   0.88530   Biso      1.000     C          -0.040629           
         C78       1.0000    0.76290   0.01600   0.87230   Biso      1.000     C          -0.091597           
         C79       1.0000    0.63410   0.05410   0.81560   Biso      1.000     C          0.577976  
         C80       1.0000    0.17550   0.58070   0.69070   Biso      1.000     C          0.577481  
         C81       1.0000    0.60250   0.61700   0.52810   Biso      1.000     C          0.625806  
         C82       1.0000    0.06510   0.43270   0.15010   Biso      1.000     C          -0.105646           
         C83       1.0000    0.61330   0.88980   0.53380   Biso      1.000     C          0.606563  
         C84       1.0000    0.85390   0.74570   0.63250   Biso      1.000     C          0.623764  
         C85       1.0000    0.77460   0.00760   0.32970   Biso      1.000     C          -0.021754           
         C86       1.0000    0.72020   0.95870   0.30110   Biso      1.000     C          -0.095218           
         C87       1.0000    0.63190   0.91270   0.31510   Biso      1.000     C          -0.039831           
         C88       1.0000    0.59590   0.91820   0.35680   Biso      1.000     C          -0.084842           
         C89       1.0000    0.73710   0.01600   0.37230   Biso      1.000     C          -0.091597           
         C90       1.0000    0.86590   0.05410   0.31560   Biso      1.000     C          0.577977  
         C91       1.0000    0.57550   0.86380   0.28750   Biso      1.000     C          0.637652  
         C92       1.0000    0.60350   0.98010   0.42930   Biso      1.000     C          0.640939  
         C93       1.0000    0.73170   0.47130   0.32390   Biso      1.000     C          -0.010376           
         C94       1.0000    0.69670   0.47190   0.36500   Biso      1.000     C          -0.105432           
         C95       1.0000    0.60920   0.52050   0.37810   Biso      1.000     C          -0.016728           
         C96       1.0000    0.64840   0.97170   0.38530   Biso      1.000     C          -0.040629           
         C97       1.0000    0.56510   0.56730   0.34990   Biso      1.000     C          -0.105645           
         C98       1.0000    0.65080   0.68460   0.54630   Biso      1.000     C          -0.021135           
         C99       1.0000    0.73240   0.67860   0.57860   Biso      1.000     C          -0.097221           
         C100      1.0000    0.74210   0.81540   0.58150   Biso      1.000     C          -0.116186           
         C101      1.0000    0.65530   0.81800   0.54890   Biso      1.000     C          -0.017809           
         C102      1.0000    0.76800   0.74950   0.59710   Biso      1.000     C          -0.031403           
         C103      1.0000    0.56610   0.51820   0.42310   Biso      1.000     C          0.616631  
         C104      1.0000    0.82450   0.41930   0.30930   Biso      1.000     C          0.57748   
         C105      1.0000    0.68230   0.52030   0.29370   Biso      1.000     C          -0.10311  
         C106      1.0000    0.60110   0.56970   0.30710   Biso      1.000     C          -0.029071           
         C107      1.0000    0.54830   0.62210   0.27750   Biso      1.000     C          0.626092  
         C108      1.0000    0.61270   0.75330   0.53320   Biso      1.000     C          -0.101786           
         H1        1.0000    0.26140   0.36760   0.91260   Biso      1.000     H          0.146351  
         H2        1.0000    0.24300   0.04340   0.22760   Biso      1.000     H          0.131331  
         H3        1.0000    0.27820   0.14090   0.90900   Biso      1.000     H          0.154111  
         H4        1.0000    0.20480   0.48100   0.23500   Biso      1.000     H          0.136615  
         H5        1.0000    0.00780   0.40010   0.14120   Biso      1.000     H          0.128169  
         H6        1.0000    0.23040   0.56000   0.11510   Biso      1.000     H          0.132369  
         H7        1.0000    0.27110   0.94960   0.10880   Biso      1.000     H          0.144936  
         H8        1.0000    0.03790   0.11260   0.13340   Biso      1.000     H          0.13432   
         H9        1.0000    0.73040   0.44000   0.38490   Biso      1.000     H          0.132369  
         H10       1.0000    0.77820   0.85910   0.59100   Biso      1.000     H          0.154114  
         H11       1.0000    0.70480   0.51900   0.26500   Biso      1.000     H          0.136615  
         H12       1.0000    0.50780   0.59990   0.35880   Biso      1.000     H          0.128169  
         H13       1.0000    0.74300   0.95660   0.27240   Biso      1.000     H          0.131331  
         H14       1.0000    0.77110   0.05040   0.39120   Biso      1.000     H          0.144936  
         H15       1.0000    0.53790   0.88740   0.36660   Biso      1.000     H          0.13432   
         H16       1.0000    0.05540   0.24460   0.98730   Biso      1.000     H          0.130312  
         H17       1.0000    0.76140   0.63240   0.58740   Biso      1.000     H          0.146351  
         H18       1.0000    0.25700   0.04340   0.72760   Biso      1.000     H          0.131331  
         H19       1.0000    0.55540   0.75540   0.51270   Biso      1.000     H          0.130312  
         H20       1.0000    0.22890   0.94960   0.60880   Biso      1.000     H          0.144936  
         H21       1.0000    0.46210   0.11260   0.63340   Biso      1.000     H          0.13432   
         H22       1.0000    0.94460   0.75540   0.01270   Biso      1.000     H          0.130312  
         H23       1.0000    0.73860   0.63240   0.08740   Biso      1.000     H          0.146351  
         H24       1.0000    0.72180   0.85910   0.09100   Biso      1.000     H          0.15411   
         H25       1.0000    0.79520   0.51900   0.76500   Biso      1.000     H          0.136615  
         H26       1.0000    0.76960   0.44000   0.88490   Biso      1.000     H          0.132369  
         H27       1.0000    0.72890   0.05040   0.89120   Biso      1.000     H          0.144936  
         H28       1.0000    0.96210   0.88740   0.86660   Biso      1.000     H          0.13432   
         H29       1.0000    0.99220   0.59990   0.85880   Biso      1.000     H          0.128169  
         H30       1.0000    0.44460   0.24460   0.48730   Biso      1.000     H          0.130311  
         H31       1.0000    0.23860   0.36760   0.41260   Biso      1.000     H          0.146351  
         H32       1.0000    0.22180   0.14090   0.40900   Biso      1.000     H          0.154114  
         H33       1.0000    0.29520   0.48100   0.73500   Biso      1.000     H          0.136615  
         H34       1.0000    0.49220   0.40010   0.64120   Biso      1.000     H          0.128169  
         H35       1.0000    0.26960   0.56000   0.61510   Biso      1.000     H          0.132369  
         H36       1.0000    0.75700   0.95660   0.77240   Biso      1.000     H          0.131331  
         O1        1.0000    0.51400   0.16620   0.69880   Biso      1.000     O          -0.558963           
         O2        1.0000    0.51950   0.33220   0.70679   Biso      1.000     O          -0.5547   
         O3        1.0000    0.52170   0.44760   0.56970   Biso      1.000     O          -0.540455           
         O4        1.0000    0.37270   0.51620   0.54985   Biso      1.000     O          -0.590918           
         O5        1.0000    0.10790   0.60090   0.66340   Biso      1.000     O          -0.517035           
         O6        1.0000    0.17480   0.60070   0.72840   Biso      1.000     O          -0.486744           
         O7        1.0000    0.34420   0.98060   0.54470   Biso      1.000     O          -0.572797           
         O8        1.0000    0.48950   0.04580   0.56360   Biso      1.000     O          -0.58664  
         O9        1.0000    0.38740   0.15320   0.74860   Biso      1.000     O          -0.561726           
         O10       1.0000    0.16920   0.04840   0.96190   Biso      1.000     O          -0.565347           
         O11       1.0000    0.08130   0.90860   0.65700   Biso      1.000     O          -0.531794           
         O12       1.0000    0.56440   0.23880   0.79155   Biso      1.000     O          -0.801647           
         O13       1.0000    0.00900   0.37960   0.98940   Biso      1.000     O          -0.576477           
         O14       1.0000    0.15630   0.44550   0.96820   Biso      1.000     O          -0.588911           
         O15       1.0000    0.38570   0.31700   0.85460   Biso      1.000     O          -0.540538           
         O16       1.0000    0.38330   0.19460   0.85280   Biso      1.000     O          -0.535118           
         O17       1.0000    0.42030   0.37960   0.76085   Biso      1.000     O          -0.539542           
         O18       1.0000    0.01740   0.11250   0.98450   Biso      1.000     O          -0.599898           
         O19       1.0000    0.07970   0.37960   0.26085   Biso      1.000     O          -0.539542           
         O20       1.0000    0.98050   0.33220   0.20679   Biso      1.000     O          -0.5547   
         O21       1.0000    0.11560   0.94020   0.72210   Biso      1.000     O          -0.524534           
         O22       1.0000    0.48260   0.11250   0.48450   Biso      1.000     O          -0.599899           
         O23       1.0000    0.92030   0.62040   0.73915   Biso      1.000     O          -0.539542           
         O24       1.0000    0.11670   0.19460   0.35280   Biso      1.000     O          -0.535118           
         O25       1.0000    0.34370   0.44550   0.46820   Biso      1.000     O          -0.58891  
         O26       1.0000    0.97830   0.44760   0.06970   Biso      1.000     O          -0.540455           
         O27       1.0000    0.49100   0.37960   0.48940   Biso      1.000     O          -0.576477           
         O28       1.0000    0.93560   0.23880   0.29155   Biso      1.000     O          -0.801648           
         O29       1.0000    0.58130   0.09140   0.84300   Biso      1.000     O          -0.531794           
         O30       1.0000    0.61560   0.05980   0.77790   Biso      1.000     O          -0.524532           
         O31       1.0000    0.88740   0.84680   0.75140   Biso      1.000     O          -0.561725           
         O32       1.0000    0.01400   0.83380   0.80120   Biso      1.000     O          -0.558963           
         O33       1.0000    0.98950   0.95420   0.93640   Biso      1.000     O          -0.58664  
         O34       1.0000    0.84420   0.01940   0.95530   Biso      1.000     O          -0.572797           
         O35       1.0000    0.67480   0.39930   0.77160   Biso      1.000     O          -0.486742           
         O36       1.0000    0.60790   0.39910   0.83660   Biso      1.000     O          -0.517036           
         O37       1.0000    0.87270   0.48380   0.95015   Biso      1.000     O          -0.590919           
         O38       1.0000    0.02170   0.55240   0.93030   Biso      1.000     O          -0.540455           
         O39       1.0000    0.01950   0.66780   0.79321   Biso      1.000     O          -0.5547   
         O40       1.0000    0.98260   0.88750   0.01550   Biso      1.000     O          -0.599899           
         O41       1.0000    0.83080   0.95160   0.03810   Biso      1.000     O          -0.565347           
         O42       1.0000    0.61670   0.80540   0.14720   Biso      1.000     O          -0.535119           
         O43       1.0000    0.61430   0.68300   0.14540   Biso      1.000     O          -0.540538           
         O44       1.0000    0.84370   0.55450   0.03180   Biso      1.000     O          -0.588911           
         O45       1.0000    0.11430   0.31700   0.35460   Biso      1.000     O          -0.540538           
         O46       1.0000    0.33080   0.04840   0.46190   Biso      1.000     O          -0.565347           
         O47       1.0000    0.12730   0.51620   0.04985   Biso      1.000     O          -0.590919           
         O48       1.0000    0.43560   0.76120   0.20845   Biso      1.000     O          -0.801644           
         O49       1.0000    0.32520   0.60070   0.22840   Biso      1.000     O          -0.486744           
         O50       1.0000    0.99100   0.62040   0.01060   Biso      1.000     O          -0.576477           
         O51       1.0000    0.91870   0.09140   0.34300   Biso      1.000     O          -0.531794           
         O52       1.0000    0.88440   0.05980   0.27790   Biso      1.000     O          -0.524533           
         O53       1.0000    0.39210   0.60090   0.16340   Biso      1.000     O          -0.517035           
         O54       1.0000    0.48600   0.83380   0.30120   Biso      1.000     O          -0.558963           
         O55       1.0000    0.51050   0.95420   0.43640   Biso      1.000     O          -0.58664  
         O56       1.0000    0.65580   0.01940   0.45530   Biso      1.000     O          -0.572797           
         O57       1.0000    0.82520   0.39930   0.27160   Biso      1.000     O          -0.486741           
         O58       1.0000    0.89210   0.39910   0.33660   Biso      1.000     O          -0.517037           
         O59       1.0000    0.62730   0.48380   0.45015   Biso      1.000     O          -0.590919           
         O60       1.0000    0.47830   0.55240   0.43030   Biso      1.000     O          -0.540455           
         O61       1.0000    0.48050   0.66780   0.29321   Biso      1.000     O          -0.5547   
         O62       1.0000    0.57970   0.62040   0.23915   Biso      1.000     O          -0.539542           
         O63       1.0000    0.61260   0.84680   0.25140   Biso      1.000     O          -0.561725           
         O64       1.0000    0.66920   0.95160   0.53810   Biso      1.000     O          -0.565347           
         O65       1.0000    0.51740   0.88750   0.51550   Biso      1.000     O          -0.599899           
         O66       1.0000    0.15580   0.98060   0.04470   Biso      1.000     O          -0.572797           
         O67       1.0000    0.98600   0.16620   0.19880   Biso      1.000     O          -0.558963           
         O68       1.0000    0.11260   0.15320   0.24860   Biso      1.000     O          -0.561724           
         O69       1.0000    0.38440   0.94020   0.22210   Biso      1.000     O          -0.52453  
         O70       1.0000    0.01050   0.04580   0.06360   Biso      1.000     O          -0.58664  
         O71       1.0000    0.06440   0.76120   0.70845   Biso      1.000     O          -0.801644           
         O72       1.0000    0.50900   0.62040   0.51060   Biso      1.000     O          -0.576477           
         O73       1.0000    0.65630   0.55450   0.53180   Biso      1.000     O          -0.58891  
         O74       1.0000    0.88570   0.68300   0.64540   Biso      1.000     O          -0.540538           
         O75       1.0000    0.88330   0.80540   0.64720   Biso      1.000     O          -0.535118           
         O76       1.0000    0.41870   0.90860   0.15700   Biso      1.000     O          -0.531793           
         Zn1       1.0000    0.90818   0.24535   0.23129   Biso      1.000     Zn          1.026377  
         Zn2       1.0000    0.59907   0.45502   0.51243   Biso      1.000     Zn          1.072008  
         Zn3       1.0000    0.99797   0.66586   0.69005   Biso      1.000     Zn          0.956842  
         Zn4       1.0000    0.40818   0.75465   0.26871   Biso      1.000     Zn          1.026377  
         Zn5       1.0000    0.03162   0.14537   0.30540   Biso      1.000     Zn          1.001189  
         Zn6       1.0000    0.90112   0.04406   0.01347   Biso      1.000     Zn          1.075719  
         Zn7       1.0000    0.09907   0.54498   0.98757   Biso      1.000     Zn          1.072008  
         Zn8       1.0000    0.49797   0.33414   0.80995   Biso      1.000     Zn          0.956843  
         Zn9       1.0000    0.53162   0.85463   0.19460   Biso      1.000     Zn          1.001187  
         Zn10      1.0000    0.09888   0.95594   0.98653   Biso      1.000     Zn          1.075719  
         Zn11      1.0000    0.40093   0.54498   0.48757   Biso      1.000     Zn          1.072008  
         Zn12      1.0000    0.00203   0.33414   0.30995   Biso      1.000     Zn          0.956844  
         Zn13      1.0000    0.59182   0.24535   0.73129   Biso      1.000     Zn          1.026378  
         Zn14      1.0000    0.96838   0.85463   0.69460   Biso      1.000     Zn          1.001188  
         Zn15      1.0000    0.90093   0.45502   0.01243   Biso      1.000     Zn          1.072008  
         Zn16      1.0000    0.50203   0.66586   0.19005   Biso      1.000     Zn          0.956842  
         Zn17      1.0000    0.09182   0.75465   0.76871   Biso      1.000     Zn          1.026377  
         Zn18      1.0000    0.46838   0.14537   0.80540   Biso      1.000     Zn          1.001189  
         Zn19      1.0000    0.59888   0.04406   0.51347   Biso      1.000     Zn          1.075719  
         Zn20      1.0000    0.40112   0.95594   0.48653   Biso      1.000     Zn          1.075719 