
##########################################################################
#               Crystallographic Information Format file
#               Produced by PyCifRW module
#
#  This is a CIF file.  CIF has been adopted by the International
#  Union of Crystallography as the standard for data archiving and
#  transmission.
#
#  For information on this file format, follow the CIF links at
#  http://www.iucr.org
##########################################################################

data_image0

_cell_length_a                          12.606
_cell_length_b                          12.906
_cell_length_c                          27.737
_cell_angle_alpha                       92.97
_cell_angle_beta                        90
_cell_angle_gamma                       90
_symmetry_space_group_name_H-M          'P 1'
_symmetry_int_tables_number             1
loop_
  _symmetry_equiv_pos_as_xyz
         'x, y, z' 
loop_
  _atom_site_label
  _atom_site_occupancy
  _atom_site_fract_x
  _atom_site_fract_y
  _atom_site_fract_z
  _atom_site_thermal_displace_type
  _atom_site_B_iso_or_equiv
  _atom_site_type_symbol
  _atom_site_charge
         C1        1.0000    0.37990   0.29200   0.21425   Biso      1.000     C          -0.10499700000000001          
         C2        1.0000    0.50940   0.40940   0.26053   Biso      1.000     C          0.647359  
         C3        1.0000    0.45110   0.44070   0.08407   Biso      1.000     C          0.632323  
         C4        1.0000    0.24970   0.17540   0.17097   Biso      1.000     C          0.634152  
         C5        1.0000    0.45220   0.37360   0.21517   Biso      1.000     C          -0.036828           
         C6        1.0000    0.47560   0.42130   0.17288   Biso      1.000     C          -0.109161           
         C7        1.0000    0.42270   0.39230   0.13014   Biso      1.000     C          -0.028377999999999997         
         C8        1.0000    0.34660   0.31470   0.13018   Biso      1.000     C          -0.093915           
         C9        1.0000    0.32610   0.26300   0.17236   Biso      1.000     C          -0.02247  
         C10       1.0000    0.85450   0.86020   0.49305   Biso      1.000     C          0.6429239999999999  
         C11       1.0000    0.66090   0.59570   0.38563   Biso      1.000     C          0.626472  
         C12       1.0000    0.54490   0.65690   0.55630   Biso      1.000     C          0.581654  
         C13       1.0000    0.69630   0.75880   0.52342   Biso      1.000     C          -0.110509           
         C14       1.0000    0.76830   0.77890   0.48638   Biso      1.000     C          -0.01877  
         C15       1.0000    0.75820   0.72320   0.44179   Biso      1.000     C          -0.130751           
         C16       1.0000    0.67510   0.65310   0.43418   Biso      1.000     C          -0.031432           
         C17       1.0000    0.60540   0.63480   0.47167   Biso      1.000     C          -0.089668           
         C18       1.0000    0.61800   0.68480   0.51644   Biso      1.000     C          0.004332  
         C19       1.0000    0.04890   0.94070   0.58407   Biso      1.000     C          0.632323  
         C20       1.0000    0.25030   0.67540   0.67097   Biso      1.000     C          0.634152  
         C21       1.0000    0.12010   0.79200   0.71425   Biso      1.000     C          -0.10499700000000001          
         C22       1.0000    0.04780   0.87360   0.71517   Biso      1.000     C          -0.036827           
         C23       1.0000    0.02440   0.92130   0.67288   Biso      1.000     C          -0.109161           
         C24       1.0000    0.07730   0.89230   0.63014   Biso      1.000     C          -0.028377999999999997         
         C25       1.0000    0.88200   0.18480   0.01644   Biso      1.000     C          0.004327  
         C26       1.0000    0.15340   0.81470   0.63018   Biso      1.000     C          -0.093915           
         C27       1.0000    0.89460   0.13480   0.97167   Biso      1.000     C          -0.089665           
         C28       1.0000    0.74180   0.22320   0.94179   Biso      1.000     C          -0.130751           
         C29       1.0000    0.14550   0.13980   0.50695   Biso      1.000     C          0.6429239999999999  
         C30       1.0000    0.33910   0.40430   0.61437   Biso      1.000     C          0.626472  
         C31       1.0000    0.45510   0.34310   0.44370   Biso      1.000     C          0.581654  
         C32       1.0000    0.30370   0.24120   0.47658   Biso      1.000     C          -0.110509           
         C33       1.0000    0.23170   0.22110   0.51362   Biso      1.000     C          -0.01877  
         C34       1.0000    0.24180   0.27680   0.55821   Biso      1.000     C          -0.130751           
         C35       1.0000    0.32490   0.34690   0.56582   Biso      1.000     C          -0.031432           
         C36       1.0000    0.39460   0.36520   0.52833   Biso      1.000     C          -0.089668           
         C37       1.0000    0.38200   0.31520   0.48356   Biso      1.000     C          0.004332  
         C38       1.0000    0.00940   0.09060   0.23947   Biso      1.000     C          0.647359  
         C39       1.0000    0.95110   0.05930   0.41593   Biso      1.000     C          0.632323  
         C40       1.0000    0.74970   0.32460   0.32903   Biso      1.000     C          0.634152  
         C41       1.0000    0.87990   0.20800   0.28575   Biso      1.000     C          -0.10499700000000001          
         C42       1.0000    0.95220   0.12640   0.28483   Biso      1.000     C          -0.036828           
         C43       1.0000    0.97560   0.07870   0.32712   Biso      1.000     C          -0.109161           
         C44       1.0000    0.92270   0.10770   0.36986   Biso      1.000     C          -0.028377999999999997         
         C45       1.0000    0.84660   0.18530   0.36982   Biso      1.000     C          -0.093915           
         C46       1.0000    0.82610   0.23700   0.32764   Biso      1.000     C          -0.02247  
         C47       1.0000    0.64550   0.36020   0.99305   Biso      1.000     C          0.6429239999999999  
         C48       1.0000    0.83910   0.09570   0.88563   Biso      1.000     C          0.626472  
         C49       1.0000    0.95510   0.15690   0.05630   Biso      1.000     C          0.581654  
         C50       1.0000    0.80370   0.25880   0.02342   Biso      1.000     C          -0.110506           
         C51       1.0000    0.73170   0.27890   0.98638   Biso      1.000     C          -0.01877  
         C52       1.0000    0.82490   0.15310   0.93418   Biso      1.000     C          -0.031432           
         C53       1.0000    0.17390   0.76300   0.67236   Biso      1.000     C          -0.02247  
         C54       1.0000    0.99060   0.90940   0.76053   Biso      1.000     C          0.647359  
         C55       1.0000    0.16090   0.90430   0.11437   Biso      1.000     C          0.626472  
         C56       1.0000    0.35450   0.63980   0.00695   Biso      1.000     C          0.6429239999999999  
         C57       1.0000    0.67390   0.73700   0.82764   Biso      1.000     C          -0.022472           
         C58       1.0000    0.65340   0.68530   0.86982   Biso      1.000     C          -0.093914           
         C59       1.0000    0.57730   0.60770   0.86986   Biso      1.000     C          -0.028377999999999997         
         C60       1.0000    0.54780   0.62640   0.78483   Biso      1.000     C          -0.036828           
         C61       1.0000    0.62010   0.70800   0.78575   Biso      1.000     C          -0.104996           
         C62       1.0000    0.75030   0.82460   0.82903   Biso      1.000     C          0.634152  
         C63       1.0000    0.54890   0.55930   0.91593   Biso      1.000     C          0.632323  
         C64       1.0000    0.52440   0.57870   0.82712   Biso      1.000     C          -0.109161           
         C65       1.0000    0.11800   0.81520   0.98356   Biso      1.000     C          0.004327  
         C66       1.0000    0.10540   0.86520   0.02833   Biso      1.000     C          -0.089665           
         C67       1.0000    0.17510   0.84690   0.06582   Biso      1.000     C          -0.031432999999999996         
         C68       1.0000    0.25820   0.77680   0.05821   Biso      1.000     C          -0.13075  
         C69       1.0000    0.26830   0.72110   0.01362   Biso      1.000     C          -0.018771           
         C70       1.0000    0.19630   0.74120   0.97658   Biso      1.000     C          -0.110506           
         C71       1.0000    0.49060   0.59060   0.73947   Biso      1.000     C          0.647359  
         C72       1.0000    0.04490   0.84310   0.94370   Biso      1.000     C          0.581654  
         H1        1.0000    0.69160   0.70350   0.89850   Biso      1.000     H          0.13605799999999998           
         H2        1.0000    0.80810   0.73330   0.41680   Biso      1.000     H          0.12440899999999999           
         H3        1.0000    0.54850   0.58730   0.46640   Biso      1.000     H          0.133466  
         H4        1.0000    0.13240   0.75590   0.74270   Biso      1.000     H          0.129828  
         H5        1.0000    0.19160   0.79650   0.60150   Biso      1.000     H          0.13605799999999998           
         H6        1.0000    0.63240   0.74410   0.75730   Biso      1.000     H          0.129828  
         H7        1.0000    0.30810   0.76670   0.08320   Biso      1.000     H          0.12440899999999999           
         H8        1.0000    0.04850   0.91270   0.03360   Biso      1.000     H          0.133466  
         H9        1.0000    0.47200   0.52580   0.82700   Biso      1.000     H          0.12294000000000001           
         H10       1.0000    0.70160   0.79660   0.55360   Biso      1.000     H          0.127187  
         H11       1.0000    0.20160   0.70340   0.94640   Biso      1.000     H          0.127187  
         H12       1.0000    0.30840   0.29650   0.10150   Biso      1.000     H          0.13605799999999998           
         H13       1.0000    0.97200   0.97420   0.67300   Biso      1.000     H          0.12294000000000001           
         H14       1.0000    0.36760   0.25590   0.24270   Biso      1.000     H          0.129828  
         H15       1.0000    0.95150   0.08730   0.96640   Biso      1.000     H          0.133466  
         H16       1.0000    0.69190   0.23330   0.91680   Biso      1.000     H          0.12440899999999999           
         H17       1.0000    0.79840   0.29660   0.05360   Biso      1.000     H          0.127187  
         H18       1.0000    0.80840   0.20350   0.39850   Biso      1.000     H          0.13605799999999998           
         H19       1.0000    0.02800   0.02580   0.32700   Biso      1.000     H          0.12294000000000001           
         H20       1.0000    0.86760   0.24410   0.25730   Biso      1.000     H          0.129828  
         H21       1.0000    0.45150   0.41270   0.53360   Biso      1.000     H          0.133466  
         H22       1.0000    0.19190   0.26670   0.58320   Biso      1.000     H          0.12440899999999999           
         H23       1.0000    0.29840   0.20340   0.44640   Biso      1.000     H          0.127187  
         H24       1.0000    0.52800   0.47420   0.17300   Biso      1.000     H          0.12294000000000001           
         O1        1.0000    0.58090   0.47320   0.25515   Biso      1.000     O          -0.603696           
         O2        1.0000    0.48280   0.37160   0.29944   Biso      1.000     O          -0.532131           
         O3        1.0000    0.40590   0.40700   0.04618   Biso      1.000     O          -0.581882           
         O4        1.0000    0.52100   0.51120   0.08643   Biso      1.000     O          -0.574684           
         O5        1.0000    0.17850   0.17770   0.13845   Biso      1.000     O          -0.55316  
         O6        1.0000    0.73370   0.60160   0.35541   Biso      1.000     O          -0.543996           
         O7        1.0000    0.94080   0.83980   0.47399   Biso      1.000     O          -0.576975           
         O8        1.0000    0.82860   0.94070   0.51726   Biso      1.000     O          -0.582232           
         O9        1.0000    0.57490   0.54630   0.37759   Biso      1.000     O          -0.5883729999999999           
         O10       1.0000    0.04410   0.11650   0.04607   Biso      1.000     O          -0.579745           
         O11       1.0000    0.57420   0.66780   0.59865   Biso      1.000     O          -0.558074           
         O12       1.0000    0.25970   0.10700   0.20054   Biso      1.000     O          -0.5986319999999999           
         O13       1.0000    0.92580   0.16780   0.09865   Biso      1.000     O          -0.558074           
         O14       1.0000    0.54410   0.38350   0.45393   Biso      1.000     O          -0.579745           
         O15       1.0000    0.92510   0.04630   0.87759   Biso      1.000     O          -0.588374           
         O16       1.0000    0.42510   0.45370   0.62241   Biso      1.000     O          -0.5883729999999999           
         O17       1.0000    0.26630   0.39840   0.64459   Biso      1.000     O          -0.543996           
         O18       1.0000    0.42580   0.33220   0.40135   Biso      1.000     O          -0.558074           
         O19       1.0000    0.08090   0.02680   0.24485   Biso      1.000     O          -0.603696           
         O20       1.0000    0.98280   0.12840   0.20056   Biso      1.000     O          -0.532131           
         O21       1.0000    0.90590   0.09300   0.45382   Biso      1.000     O          -0.581882           
         O22       1.0000    0.02100   0.98880   0.41357   Biso      1.000     O          -0.574684           
         O23       1.0000    0.67850   0.32230   0.36155   Biso      1.000     O          -0.55316  
         O24       1.0000    0.75970   0.39300   0.29946   Biso      1.000     O          -0.5986319999999999           
         O25       1.0000    0.55920   0.33980   0.97399   Biso      1.000     O          -0.576975           
         O26       1.0000    0.45590   0.61650   0.54607   Biso      1.000     O          -0.579745           
         O27       1.0000    0.67140   0.44070   0.01726   Biso      1.000     O          -0.582233           
         O28       1.0000    0.76630   0.10160   0.85541   Biso      1.000     O          -0.543996           
         O29       1.0000    0.91910   0.97320   0.75515   Biso      1.000     O          -0.603696           
         O30       1.0000    0.05920   0.16020   0.52601   Biso      1.000     O          -0.576975           
         O31       1.0000    0.09410   0.90700   0.54618   Biso      1.000     O          -0.581882           
         O32       1.0000    0.17140   0.05930   0.48274   Biso      1.000     O          -0.582232           
         O33       1.0000    0.74030   0.89300   0.79946   Biso      1.000     O          -0.5986319999999999           
         O34       1.0000    0.01720   0.87160   0.79944   Biso      1.000     O          -0.532131           
         O35       1.0000    0.47900   0.48880   0.91357   Biso      1.000     O          -0.574684           
         O36       1.0000    0.59410   0.59300   0.95382   Biso      1.000     O          -0.581882           
         O37       1.0000    0.51720   0.62840   0.70056   Biso      1.000     O          -0.532131           
         O38       1.0000    0.41910   0.52680   0.74485   Biso      1.000     O          -0.603696           
         O39       1.0000    0.95590   0.88350   0.95393   Biso      1.000     O          -0.579746           
         O40       1.0000    0.82150   0.82230   0.86155   Biso      1.000     O          -0.55316  
         O41       1.0000    0.23370   0.89840   0.14459   Biso      1.000     O          -0.5439970000000001           
         O42       1.0000    0.07490   0.95370   0.12241   Biso      1.000     O          -0.5883729999999999           
         O43       1.0000    0.32860   0.55930   0.98274   Biso      1.000     O          -0.582232           
         O44       1.0000    0.44080   0.66020   0.02601   Biso      1.000     O          -0.576975           
         O45       1.0000    0.24030   0.60700   0.70054   Biso      1.000     O          -0.5986319999999999           
         O46       1.0000    0.32150   0.67770   0.63845   Biso      1.000     O          -0.55316  
         O47       1.0000    0.97900   0.01120   0.58643   Biso      1.000     O          -0.574684           
         O48       1.0000    0.07420   0.83220   0.90135   Biso      1.000     O          -0.558074           
         Zn1       1.0000    0.79922   0.04182   0.79019   Biso      1.000     Zn          1.080035  
         Zn2       1.0000    0.42279   0.42814   0.97392   Biso      1.000     Zn          1.063326  
         Zn3       1.0000    0.45515   0.60238   0.63433   Biso      1.000     Zn          0.963993  
         Zn4       1.0000    0.29922   0.45818   0.70981   Biso      1.000     Zn          1.080035  
         Zn5       1.0000    0.92279   0.07186   0.52608   Biso      1.000     Zn          1.063326  
         Zn6       1.0000    0.54485   0.39762   0.36567   Biso      1.000     Zn          0.963993  
         Zn7       1.0000    0.20078   0.95818   0.20981   Biso      1.000     Zn          1.080035  
         Zn8       1.0000    0.57721   0.57186   0.02608   Biso      1.000     Zn          1.063326  
         Zn9       1.0000    0.70078   0.54182   0.29019   Biso      1.000     Zn          1.080035  
         Zn10      1.0000    0.07721   0.92814   0.47392   Biso      1.000     Zn          1.063326  
         Zn11      1.0000    0.04485   0.10238   0.13433   Biso      1.000     Zn          0.963992  
         Zn12      1.0000    0.95515   0.89762   0.86567   Biso      1.000     Zn          0.963993 