
##########################################################################
#               Crystallographic Information Format file
#               Produced by PyCifRW module
#
#  This is a CIF file.  CIF has been adopted by the International
#  Union of Crystallography as the standard for data archiving and
#  transmission.
#
#  For information on this file format, follow the CIF links at
#  http://www.iucr.org
##########################################################################

data_image0

_cell_length_a                          9.8568
_cell_length_b                          11.307
_cell_length_c                          14.729
_cell_angle_alpha                       91.371
_cell_angle_beta                        90
_cell_angle_gamma                       90
_symmetry_space_group_name_H-M          'P 1'
_symmetry_int_tables_number             1
loop_
  _symmetry_equiv_pos_as_xyz
         'x, y, z' 
loop_
  _atom_site_label
  _atom_site_occupancy
  _atom_site_fract_x
  _atom_site_fract_y
  _atom_site_fract_z
  _atom_site_thermal_displace_type
  _atom_site_B_iso_or_equiv
  _atom_site_type_symbol
  _atom_site_charge
         C1        1.0000    0.63634   0.45121   0.68196   Biso      1.000     C          0.560856  
         C2        1.0000    0.16778   0.82302   0.33154   Biso      1.000     C          0.565545  
         C3        1.0000    0.27300   0.93735   0.06311   Biso      1.000     C          0.561017  
         C4        1.0000    0.28731   0.57405   0.05670   Biso      1.000     C          0.5628310000000001  
         C5        1.0000    0.97327   0.51887   0.20672   Biso      1.000     C          0.562196  
         C6        1.0000    0.36366   0.54879   0.31804   Biso      1.000     C          0.560856  
         C7        1.0000    0.40275   0.75895   0.53060   Biso      1.000     C          0.566018  
         C8        1.0000    0.66778   0.67698   0.16846   Biso      1.000     C          0.565545  
         C9        1.0000    0.77300   0.56265   0.43689   Biso      1.000     C          0.561017  
         C10       1.0000    0.78731   0.92595   0.44330   Biso      1.000     C          0.562832  
         C11       1.0000    0.47327   0.98113   0.29328   Biso      1.000     C          0.562196  
         C12       1.0000    0.90275   0.74105   0.96940   Biso      1.000     C          0.566018  
         C13       1.0000    0.86366   0.95121   0.18196   Biso      1.000     C          0.560856  
         C14       1.0000    0.33222   0.32302   0.83154   Biso      1.000     C          0.565545  
         C15       1.0000    0.13634   0.04879   0.81804   Biso      1.000     C          0.560856  
         C16       1.0000    0.09725   0.25895   0.03060   Biso      1.000     C          0.566018  
         C17       1.0000    0.83222   0.17698   0.66846   Biso      1.000     C          0.565545  
         C18       1.0000    0.72700   0.06265   0.93689   Biso      1.000     C          0.561017  
         C19       1.0000    0.71269   0.42595   0.94330   Biso      1.000     C          0.5628310000000001  
         C20       1.0000    0.02673   0.48113   0.79328   Biso      1.000     C          0.562196  
         C21       1.0000    0.59725   0.24105   0.46940   Biso      1.000     C          0.566018  
         C22       1.0000    0.22700   0.43735   0.56311   Biso      1.000     C          0.561017  
         C23       1.0000    0.52673   0.01887   0.70672   Biso      1.000     C          0.562196  
         C24       1.0000    0.21269   0.07405   0.55670   Biso      1.000     C          0.5628310000000001  
         H1        1.0000    0.76320   0.14940   0.63040   Biso      1.000     H          0.027036  
         H2        1.0000    0.15190   0.30320   0.07010   Biso      1.000     H          0.026588  
         H3        1.0000    0.87890   0.94460   0.44870   Biso      1.000     H          0.030144999999999998          
         H4        1.0000    0.70910   0.99880   0.97370   Biso      1.000     H          0.031275  
         H5        1.0000    0.19850   0.02070   0.77520   Biso      1.000     H          0.027236  
         H6        1.0000    0.62110   0.44460   0.94870   Biso      1.000     H          0.030144999999999998          
         H7        1.0000    0.05240   0.52270   0.74240   Biso      1.000     H          0.031938  
         H8        1.0000    0.69850   0.47930   0.72480   Biso      1.000     H          0.027236  
         H9        1.0000    0.79090   0.49880   0.47370   Biso      1.000     H          0.031275  
         H10       1.0000    0.73680   0.64940   0.13040   Biso      1.000     H          0.027036  
         H11       1.0000    0.34810   0.80320   0.57010   Biso      1.000     H          0.026588  
         H12       1.0000    0.30150   0.52070   0.27520   Biso      1.000     H          0.027236  
         H13       1.0000    0.94760   0.47730   0.25760   Biso      1.000     H          0.031938  
         H14       1.0000    0.37890   0.55540   0.05130   Biso      1.000     H          0.030144  
         H15       1.0000    0.44760   0.02270   0.24240   Biso      1.000     H          0.031938  
         H16       1.0000    0.29090   0.00120   0.02630   Biso      1.000     H          0.031275  
         H17       1.0000    0.84810   0.69680   0.92990   Biso      1.000     H          0.026588  
         H18       1.0000    0.55240   0.97730   0.75760   Biso      1.000     H          0.031938  
         H19       1.0000    0.12110   0.05540   0.55130   Biso      1.000     H          0.030144999999999998          
         H20       1.0000    0.20910   0.50120   0.52630   Biso      1.000     H          0.031275  
         H21       1.0000    0.26320   0.35060   0.86960   Biso      1.000     H          0.027036  
         H22       1.0000    0.65190   0.19680   0.42990   Biso      1.000     H          0.026588  
         H23       1.0000    0.23680   0.85060   0.36960   Biso      1.000     H          0.027036  
         H24       1.0000    0.80150   0.97930   0.22480   Biso      1.000     H          0.027236  
         Mg1       1.0000    0.57762   0.74357   0.36462   Biso      1.000     Mg          1.34527   
         Mg2       1.0000    0.50000   0.50000   0.50000   Biso      1.000     Mg          1.3443370000000001  
         Mg3       1.0000    0.00000   0.00000   0.00000   Biso      1.000     Mg          1.3443370000000001  
         Mg4       1.0000    0.07762   0.75643   0.13538   Biso      1.000     Mg          1.34527   
         Mg5       1.0000    0.88570   0.73962   0.30733   Biso      1.000     Mg          1.327584  
         Mg6       1.0000    0.42238   0.25643   0.63538   Biso      1.000     Mg          1.34527   
         Mg7       1.0000    0.61430   0.23962   0.80733   Biso      1.000     Mg          1.327584  
         Mg8       1.0000    0.38570   0.76038   0.19267   Biso      1.000     Mg          1.327584  
         Mg9       1.0000    0.11430   0.26038   0.69267   Biso      1.000     Mg          1.327584  
         Mg10      1.0000    0.50000   0.00000   0.50000   Biso      1.000     Mg          1.337261  
         Mg11      1.0000    0.00000   0.50000   0.00000   Biso      1.000     Mg          1.337261  
         Mg12      1.0000    0.92238   0.24357   0.86462   Biso      1.000     Mg          1.3452709999999999  
         O1        1.0000    0.51116   0.96126   0.63522   Biso      1.000     O          -0.573095           
         O2        1.0000    0.60166   0.34933   0.46318   Biso      1.000     O          -0.576022           
         O3        1.0000    0.24490   0.15782   0.61275   Biso      1.000     O          -0.684096           
         O4        1.0000    0.29304   0.01602   0.50924   Biso      1.000     O          -0.5696439999999999           
         O5        1.0000    0.34989   0.40111   0.56621   Biso      1.000     O          -0.683878           
         O6        1.0000    0.12974   0.39508   0.60465   Biso      1.000     O          -0.579036           
         O7        1.0000    0.30266   0.30544   0.74792   Biso      1.000     O          -0.6882060000000001           
         O8        1.0000    0.44481   0.30662   0.86649   Biso      1.000     O          -0.577122           
         O9        1.0000    0.52432   0.18369   0.52529   Biso      1.000     O          -0.692274           
         O10       1.0000    0.58228   0.35044   0.69620   Biso      1.000     O          -0.6878380000000001           
         O11       1.0000    0.79304   0.48398   0.99076   Biso      1.000     O          -0.5696439999999999           
         O12       1.0000    0.01075   0.36985   0.78298   Biso      1.000     O          -0.691329           
         O13       1.0000    0.01116   0.53874   0.86478   Biso      1.000     O          -0.573095           
         O14       1.0000    0.74490   0.34218   0.88725   Biso      1.000     O          -0.684096           
         O15       1.0000    0.51075   0.13015   0.71702   Biso      1.000     O          -0.691329           
         O16       1.0000    0.84989   0.09889   0.93379   Biso      1.000     O          -0.683878           
         O17       1.0000    0.62974   0.10492   0.89535   Biso      1.000     O          -0.579036           
         O18       1.0000    0.80266   0.19456   0.75208   Biso      1.000     O          -0.6882060000000001           
         O19       1.0000    0.94481   0.19338   0.63351   Biso      1.000     O          -0.577121           
         O20       1.0000    0.02432   0.31631   0.97471   Biso      1.000     O          -0.692274           
         O21       1.0000    0.10166   0.15067   0.03682   Biso      1.000     O          -0.576022           
         O22       1.0000    0.61362   0.51437   0.61663   Biso      1.000     O          -0.563796           
         O23       1.0000    0.88638   0.01437   0.11663   Biso      1.000     O          -0.563796           
         O24       1.0000    0.19734   0.80544   0.24792   Biso      1.000     O          -0.6882060000000001           
         O25       1.0000    0.89834   0.84933   0.96318   Biso      1.000     O          -0.576021           
         O26       1.0000    0.08228   0.14956   0.80380   Biso      1.000     O          -0.6878380000000001           
         O27       1.0000    0.48925   0.86985   0.28298   Biso      1.000     O          -0.691329           
         O28       1.0000    0.48884   0.03874   0.36478   Biso      1.000     O          -0.573095           
         O29       1.0000    0.75510   0.84218   0.38725   Biso      1.000     O          -0.684096           
         O30       1.0000    0.70696   0.98398   0.49076   Biso      1.000     O          -0.5696439999999999           
         O31       1.0000    0.65011   0.59889   0.43379   Biso      1.000     O          -0.683878           
         O32       1.0000    0.87026   0.60492   0.39535   Biso      1.000     O          -0.579036           
         O33       1.0000    0.69734   0.69456   0.25208   Biso      1.000     O          -0.6882060000000001           
         O34       1.0000    0.55519   0.69338   0.13351   Biso      1.000     O          -0.577122           
         O35       1.0000    0.47568   0.81631   0.47471   Biso      1.000     O          -0.692274           
         O36       1.0000    0.39834   0.65067   0.53682   Biso      1.000     O          -0.576022           
         O37       1.0000    0.41772   0.64956   0.30380   Biso      1.000     O          -0.6878380000000001           
         O38       1.0000    0.38638   0.48563   0.38337   Biso      1.000     O          -0.563796           
         O39       1.0000    0.98925   0.63015   0.21702   Biso      1.000     O          -0.691329           
         O40       1.0000    0.98884   0.46126   0.13522   Biso      1.000     O          -0.573095           
         O41       1.0000    0.25510   0.65782   0.11275   Biso      1.000     O          -0.684096           
         O42       1.0000    0.20696   0.51602   0.00924   Biso      1.000     O          -0.5696439999999999           
         O43       1.0000    0.15011   0.90111   0.06621   Biso      1.000     O          -0.683878           
         O44       1.0000    0.37026   0.89508   0.10465   Biso      1.000     O          -0.579036           
         O45       1.0000    0.05519   0.80662   0.36649   Biso      1.000     O          -0.577122           
         O46       1.0000    0.97568   0.68369   0.02529   Biso      1.000     O          -0.692274           
         O47       1.0000    0.91772   0.85044   0.19620   Biso      1.000     O          -0.6878380000000001           
         O48       1.0000    0.11362   0.98563   0.88337   Biso      1.000     O          -0.563796 