
##########################################################################
#               Crystallographic Information Format file
#               Produced by PyCifRW module
#
#  This is a CIF file.  CIF has been adopted by the International
#  Union of Crystallography as the standard for data archiving and
#  transmission.
#
#  For information on this file format, follow the CIF links at
#  http://www.iucr.org
##########################################################################

data_image0

_cell_length_a                          8.132
_cell_length_b                          13.224
_cell_length_c                          7.537
_cell_angle_alpha                       90
_cell_angle_beta                        115.31
_cell_angle_gamma                       90
_symmetry_space_group_name_H-M          'P 1'
_symmetry_int_tables_number             1
loop_
  _symmetry_equiv_pos_as_xyz
         'x, y, z' 
loop_
  _atom_site_label
  _atom_site_occupancy
  _atom_site_fract_x
  _atom_site_fract_y
  _atom_site_fract_z
  _atom_site_thermal_displace_type
  _atom_site_B_iso_or_equiv
  _atom_site_type_symbol
  _atom_site_charge
         C1        1.0000    0.61460   0.15230   0.17200   Biso      1.000     C          0.67936   
         C2        1.0000    0.64820   0.03330   0.76630   Biso      1.000     C          -0.152743           
         C3        1.0000    0.83110   0.05230   0.77060   Biso      1.000     C          0.68821   
         C4        1.0000    0.11460   0.34770   0.67200   Biso      1.000     C          0.679361  
         C5        1.0000    0.05470   0.44750   0.72160   Biso      1.000     C          -0.14019  
         C6        1.0000    0.14820   0.53330   0.76630   Biso      1.000     C          -0.157356           
         C7        1.0000    0.33110   0.55230   0.77060   Biso      1.000     C          0.688335  
         C8        1.0000    0.55470   0.94750   0.72160   Biso      1.000     C          -0.140747           
         C9        1.0000    0.55470   0.05250   0.22160   Biso      1.000     C          -0.139857           
         C10       1.0000    0.64820   0.96670   0.26630   Biso      1.000     C          -0.156275           
         C11       1.0000    0.83110   0.94770   0.27060   Biso      1.000     C          0.688608  
         C12       1.0000    0.61460   0.84770   0.67200   Biso      1.000     C          0.680439  
         C13       1.0000    0.14820   0.46670   0.26630   Biso      1.000     C          -0.152564           
         C14       1.0000    0.33110   0.44770   0.27060   Biso      1.000     C          0.689249  
         C15       1.0000    0.11460   0.65230   0.17200   Biso      1.000     C          0.679824  
         C16       1.0000    0.05470   0.55250   0.22160   Biso      1.000     C          -0.139692           
         Co1       1.0000    0.00000   0.86067   0.00000   Biso      1.000     Co          1.053379  
         Co2       1.0000    0.50000   0.36067   0.00000   Biso      1.000     Co          1.050966  
         Co3       1.0000    0.50000   0.63933   0.50000   Biso      1.000     Co          1.055924  
         Co4       1.0000    0.00000   0.13933   0.50000   Biso      1.000     Co          1.050992  
         O1        1.0000    0.47120   0.50820   0.88880   Biso      1.000     O          -0.54984  
         O2        1.0000    0.47120   0.49180   0.38880   Biso      1.000     O          -0.550108           
         O3        1.0000    0.33270   0.37910   0.15350   Biso      1.000     O          -0.52192  
         O4        1.0000    0.48760   0.79220   0.55780   Biso      1.000     O          -0.529188           
         O5        1.0000    0.77790   0.82310   0.74190   Biso      1.000     O          -0.524764           
         O6        1.0000    0.83270   0.12090   0.65350   Biso      1.000     O          -0.522094           
         O7        1.0000    0.97120   0.00820   0.88880   Biso      1.000     O          -0.549914           
         O8        1.0000    0.48760   0.20780   0.05780   Biso      1.000     O          -0.530813           
         O9        1.0000    0.98760   0.70780   0.05780   Biso      1.000     O          -0.528366           
         O10       1.0000    0.97120   0.99180   0.38880   Biso      1.000     O          -0.549843           
         O11       1.0000    0.83270   0.87910   0.15350   Biso      1.000     O          -0.523145           
         O12       1.0000    0.98760   0.29220   0.55780   Biso      1.000     O          -0.529944           
         O13       1.0000    0.27790   0.32310   0.74190   Biso      1.000     O          -0.524437           
         O14       1.0000    0.33270   0.62090   0.65350   Biso      1.000     O          -0.522117           
         O15       1.0000    0.27790   0.67690   0.24190   Biso      1.000     O          -0.525098           
         O16       1.0000    0.77790   0.17690   0.24190   Biso      1.000     O          -0.523634 