
##########################################################################
#               Crystallographic Information Format file
#               Produced by PyCifRW module
#
#  This is a CIF file.  CIF has been adopted by the International
#  Union of Crystallography as the standard for data archiving and
#  transmission.
#
#  For information on this file format, follow the CIF links at
#  http://www.iucr.org
##########################################################################

data_image0

_cell_length_a                          12.138
_cell_length_b                          13.146
_cell_length_c                          14.321
_cell_angle_alpha                       91.158
_cell_angle_beta                        98.911
_cell_angle_gamma                       90.567
_symmetry_space_group_name_H-M          'P 1'
_symmetry_int_tables_number             1
loop_
  _symmetry_equiv_pos_as_xyz
         'x, y, z' 
loop_
  _atom_site_label
  _atom_site_occupancy
  _atom_site_fract_x
  _atom_site_fract_y
  _atom_site_fract_z
  _atom_site_thermal_displace_type
  _atom_site_B_iso_or_equiv
  _atom_site_type_symbol
  _atom_site_charge
         C1        1.0000    0.94850   0.67450   0.01850   Biso      1.000     C          -0.319762           
         C2        1.0000    0.82700   0.80120   0.94460   Biso      1.000     C          -0.226729           
         C3        1.0000    0.91680   0.86680   0.94600   Biso      1.000     C          -0.031054           
         C4        1.0000    0.02220   0.83700   0.98500   Biso      1.000     C          -0.223175           
         C5        1.0000    0.03630   0.74150   0.02120   Biso      1.000     C          0.194931  
         C6        1.0000    0.20920   0.76710   0.13950   Biso      1.000     C          0.106387  
         C7        1.0000    0.20130   0.62440   0.06350   Biso      1.000     C          0.095003  
         C8        1.0000    0.09760   0.98390   0.31050   Biso      1.000     C          0.551783  
         C9        1.0000    0.98790   0.92780   0.30680   Biso      1.000     C          -0.045158           
         C10       1.0000    0.94690   0.90420   0.38900   Biso      1.000     C          -0.129309           
         C11       1.0000    0.84080   0.86610   0.38520   Biso      1.000     C          -0.128079           
         C12       1.0000    0.77340   0.84970   0.29990   Biso      1.000     C          -0.028812           
         C13       1.0000    0.81540   0.87000   0.21560   Biso      1.000     C          -0.127813           
         C14       1.0000    0.92220   0.90690   0.21920   Biso      1.000     C          -0.130626           
         C15       1.0000    0.65360   0.81820   0.29440   Biso      1.000     C          0.547944  
         C16       1.0000    0.41670   0.01110   0.17860   Biso      1.000     C          0.5774    
         C17       1.0000    0.46130   0.00380   0.08630   Biso      1.000     C          -0.031569           
         C18       1.0000    0.50060   0.09050   0.04740   Biso      1.000     C          -0.121752           
         C19       1.0000    0.84290   0.70430   0.97930   Biso      1.000     C          0.283811  
         C20       1.0000    0.53930   0.08670   0.96200   Biso      1.000     C          -0.11122  
         C21       1.0000    0.64700   0.67220   0.97380   Biso      1.000     C          -0.063629           
         C22       1.0000    0.41120   0.47310   0.92940   Biso      1.000     C          0.013503  
         C23       1.0000    0.28220   0.82390   0.63960   Biso      1.000     C          0.195209  
         C24       1.0000    0.18410   0.86190   0.66070   Biso      1.000     C          -0.207776           
         C25       1.0000    0.15740   0.84570   0.74870   Biso      1.000     C          -0.04503  
         C26       1.0000    0.22740   0.79110   0.81330   Biso      1.000     C          -0.216998           
         C27       1.0000    0.32410   0.74960   0.79000   Biso      1.000     C          0.300355  
         C28       1.0000    0.45360   0.61730   0.82860   Biso      1.000     C          -0.069456           
         C29       1.0000    0.86650   0.71390   0.72060   Biso      1.000     C          0.094745  
         C30       1.0000    0.74670   0.60760   0.75300   Biso      1.000     C          0.072539  
         C31       1.0000    0.04510   0.56060   0.79670   Biso      1.000     C          -0.33758  
         C32       1.0000    0.93810   0.53750   0.75290   Biso      1.000     C          0.193326  
         C33       1.0000    0.90910   0.44280   0.71460   Biso      1.000     C          -0.233465           
         C34       1.0000    0.99010   0.37200   0.71650   Biso      1.000     C          -0.032239           
         C35       1.0000    0.09990   0.39240   0.75670   Biso      1.000     C          -0.246418           
         C36       1.0000    0.12670   0.48590   0.79970   Biso      1.000     C          0.291602  
         C37       1.0000    0.31720   0.44030   0.85050   Biso      1.000     C          -0.062108           
         C38       1.0000    0.57110   0.58210   0.98680   Biso      1.000     C          0.015475  
         C39       1.0000    0.48110   0.55370   0.91660   Biso      1.000     C          0.00571   
         C40       1.0000    0.32810   0.78490   0.47800   Biso      1.000     C          0.075321  
         C41       1.0000    0.58880   0.52690   0.07060   Biso      1.000     C          0.013503  
         C42       1.0000    0.51890   0.44630   0.08340   Biso      1.000     C          0.00571   
         C43       1.0000    0.42890   0.41790   0.01320   Biso      1.000     C          0.015475  
         C44       1.0000    0.97780   0.16300   0.01500   Biso      1.000     C          -0.22318  
         C45       1.0000    0.96370   0.25850   0.97880   Biso      1.000     C          0.194929  
         C46       1.0000    0.05150   0.32550   0.98150   Biso      1.000     C          -0.31976  
         C47       1.0000    0.79080   0.23290   0.86050   Biso      1.000     C          0.106387  
         C48       1.0000    0.79870   0.37560   0.93650   Biso      1.000     C          0.095003  
         C49       1.0000    0.90240   0.01610   0.68950   Biso      1.000     C          0.551783  
         C50       1.0000    0.01210   0.07220   0.69320   Biso      1.000     C          -0.045158           
         C51       1.0000    0.05310   0.09580   0.61100   Biso      1.000     C          -0.129309           
         C52       1.0000    0.15920   0.13390   0.61480   Biso      1.000     C          -0.128079           
         C53       1.0000    0.22660   0.15030   0.70010   Biso      1.000     C          -0.028812           
         C54       1.0000    0.18460   0.13000   0.78440   Biso      1.000     C          -0.127813           
         C55       1.0000    0.07780   0.09310   0.78080   Biso      1.000     C          -0.130626           
         C56       1.0000    0.34640   0.18180   0.70560   Biso      1.000     C          0.547944  
         C57       1.0000    0.58330   0.98890   0.82140   Biso      1.000     C          0.577399  
         C58       1.0000    0.53870   0.99620   0.91370   Biso      1.000     C          -0.031558           
         C59       1.0000    0.49940   0.90950   0.95260   Biso      1.000     C          -0.121755           
         C60       1.0000    0.46070   0.91330   0.03800   Biso      1.000     C          -0.111209           
         C61       1.0000    0.08320   0.13320   0.05400   Biso      1.000     C          -0.031049           
         C62       1.0000    0.17300   0.19880   0.05540   Biso      1.000     C          -0.226729           
         C63       1.0000    0.15710   0.29570   0.02070   Biso      1.000     C          0.283811  
         C64       1.0000    0.35300   0.32780   0.02620   Biso      1.000     C          -0.063629           
         C65       1.0000    0.68280   0.55970   0.14950   Biso      1.000     C          -0.062108           
         C66       1.0000    0.87330   0.51410   0.20030   Biso      1.000     C          0.291601  
         C67       1.0000    0.90010   0.60760   0.24330   Biso      1.000     C          -0.246413           
         C68       1.0000    0.00990   0.62800   0.28350   Biso      1.000     C          -0.032257           
         C69       1.0000    0.09090   0.55720   0.28540   Biso      1.000     C          -0.233451           
         C70       1.0000    0.06190   0.46250   0.24710   Biso      1.000     C          0.193327  
         C71       1.0000    0.95490   0.43940   0.20330   Biso      1.000     C          -0.337581           
         C72       1.0000    0.25330   0.39240   0.24700   Biso      1.000     C          0.072538  
         C73       1.0000    0.35240   0.76790   0.70260   Biso      1.000     C          -0.319622           
         C74       1.0000    0.13350   0.28610   0.27940   Biso      1.000     C          0.094746  
         C75       1.0000    0.67590   0.25040   0.21000   Biso      1.000     C          0.300353  
         C76       1.0000    0.77260   0.20890   0.18670   Biso      1.000     C          -0.217003           
         C77       1.0000    0.84260   0.15430   0.25130   Biso      1.000     C          -0.045027           
         C78       1.0000    0.81590   0.13810   0.33930   Biso      1.000     C          -0.207775           
         C79       1.0000    0.71780   0.17610   0.36040   Biso      1.000     C          0.195211  
         C80       1.0000    0.64760   0.23210   0.29740   Biso      1.000     C          -0.319622           
         C81       1.0000    0.66700   0.05900   0.48380   Biso      1.000     C          0.133866  
         C82       1.0000    0.67190   0.21510   0.52200   Biso      1.000     C          0.075321  
         C83       1.0000    0.54640   0.38270   0.17140   Biso      1.000     C          -0.069456           
         C84       1.0000    0.33300   0.94100   0.51620   Biso      1.000     C          0.133866  
         Cd1       1.0000    0.30160   0.07406   0.32508   Biso      1.000     Cd          0.839266  
         Cd2       1.0000    0.43600   0.77442   0.28136   Biso      1.000     Cd          0.629188  
         Cd3       1.0000    0.69840   0.92594   0.67492   Biso      1.000     Cd          0.839266  
         Cd4       1.0000    0.56400   0.22558   0.71864   Biso      1.000     Cd          0.629188  
         H1        1.0000    0.49920   0.84750   0.92010   Biso      1.000     H          0.102029  
         H2        1.0000    0.32170   0.71440   0.47970   Biso      1.000     H          0.097731  
         H3        1.0000    0.64340   0.72380   0.02250   Biso      1.000     H          0.110515  
         H4        1.0000    0.62400   0.70220   0.91260   Biso      1.000     H          0.098546  
         H5        1.0000    0.75560   0.82230   0.92030   Biso      1.000     H          0.134669  
         H6        1.0000    0.90610   0.93110   0.92070   Biso      1.000     H          0.1171    
         H7        1.0000    0.95990   0.60970   0.04280   Biso      1.000     H          0.143461  
         H8        1.0000    0.32940   0.00150   0.55030   Biso      1.000     H          0.119338  
         H9        1.0000    0.19170   0.83120   0.16120   Biso      1.000     H          0.124252  
         H10       1.0000    0.17700   0.57090   0.02160   Biso      1.000     H          0.114839  
         H11       1.0000    0.99190   0.91430   0.44730   Biso      1.000     H          0.110206  
         H12       1.0000    0.81410   0.85120   0.44090   Biso      1.000     H          0.114463  
         H13       1.0000    0.08290   0.88110   0.98670   Biso      1.000     H          0.130134  
         H14       1.0000    0.41830   0.74270   0.68640   Biso      1.000     H          0.148297  
         H15       1.0000    0.09170   0.87180   0.76480   Biso      1.000     H          0.105269  
         H16       1.0000    0.77070   0.85820   0.15750   Biso      1.000     H          0.110269  
         H17       1.0000    0.43440   0.85450   0.06250   Biso      1.000     H          0.111282  
         H18       1.0000    0.52090   0.64420   0.80890   Biso      1.000     H          0.091507  
         H19       1.0000    0.41200   0.57760   0.77680   Biso      1.000     H          0.091623  
         H20       1.0000    0.93280   0.74350   0.70880   Biso      1.000     H          0.114407  
         H21       1.0000    0.71330   0.54760   0.76840   Biso      1.000     H          0.097705  
         H22       1.0000    0.06270   0.62470   0.82380   Biso      1.000     H          0.140302  
         H23       1.0000    0.83580   0.42740   0.68790   Biso      1.000     H          0.112611  
         H24       1.0000    0.97150   0.30770   0.69010   Biso      1.000     H          0.104925  
         H25       1.0000    0.15440   0.34360   0.75450   Biso      1.000     H          0.129544  
         H26       1.0000    0.34450   0.43760   0.79040   Biso      1.000     H          0.088111  
         H27       1.0000    0.28940   0.37330   0.86280   Biso      1.000     H          0.096287  
         H28       1.0000    0.13670   0.89790   0.61620   Biso      1.000     H          0.130365  
         H29       1.0000    0.95070   0.91810   0.16360   Biso      1.000     H          0.105976  
         H30       1.0000    0.20950   0.78180   0.87340   Biso      1.000     H          0.125095  
         H31       1.0000    0.56560   0.14550   0.93750   Biso      1.000     H          0.111283  
         H32       1.0000    0.50080   0.15250   0.07990   Biso      1.000     H          0.102029  
         H33       1.0000    0.04930   0.08190   0.83640   Biso      1.000     H          0.105976  
         H34       1.0000    0.22930   0.14180   0.84250   Biso      1.000     H          0.110269  
         H35       1.0000    0.18590   0.14880   0.55910   Biso      1.000     H          0.114463  
         H36       1.0000    0.00810   0.08570   0.55270   Biso      1.000     H          0.110206  
         H37       1.0000    0.82300   0.42910   0.97840   Biso      1.000     H          0.114839  
         H38       1.0000    0.80830   0.16880   0.83880   Biso      1.000     H          0.124252  
         H39       1.0000    0.04010   0.39030   0.95720   Biso      1.000     H          0.143461  
         H40       1.0000    0.91710   0.11890   0.01330   Biso      1.000     H          0.130135  
         H41       1.0000    0.09390   0.06890   0.07930   Biso      1.000     H          0.1171    
         H42       1.0000    0.37600   0.29780   0.08740   Biso      1.000     H          0.098546  
         H43       1.0000    0.35660   0.27620   0.97750   Biso      1.000     H          0.110515  
         H44       1.0000    0.67830   0.28560   0.52030   Biso      1.000     H          0.097731  
         H45       1.0000    0.67060   0.99850   0.44970   Biso      1.000     H          0.119338  
         H46       1.0000    0.24440   0.17770   0.07970   Biso      1.000     H          0.134669  
         H47       1.0000    0.86330   0.10210   0.38380   Biso      1.000     H          0.130365  
         H48       1.0000    0.71060   0.62670   0.13720   Biso      1.000     H          0.096287  
         H49       1.0000    0.65550   0.56240   0.20960   Biso      1.000     H          0.088111  
         H50       1.0000    0.84560   0.65640   0.24550   Biso      1.000     H          0.129544  
         H51       1.0000    0.58170   0.25730   0.31360   Biso      1.000     H          0.148297  
         H52       1.0000    0.16420   0.57260   0.31210   Biso      1.000     H          0.11261   
         H53       1.0000    0.93730   0.37530   0.17620   Biso      1.000     H          0.140303  
         H54       1.0000    0.02850   0.69230   0.30990   Biso      1.000     H          0.104927  
         H55       1.0000    0.06720   0.25650   0.29120   Biso      1.000     H          0.114407  
         H56       1.0000    0.58800   0.42240   0.22320   Biso      1.000     H          0.091623  
         H57       1.0000    0.47910   0.35580   0.19110   Biso      1.000     H          0.091507  
         H58       1.0000    0.79050   0.21820   0.12660   Biso      1.000     H          0.125095  
         H59       1.0000    0.90830   0.12820   0.23520   Biso      1.000     H          0.105269  
         H60       1.0000    0.28670   0.45240   0.23160   Biso      1.000     H          0.097705  
         N1        1.0000    0.70670   0.37590   0.87690   Biso      1.000     N          -0.22289  
         N2        1.0000    0.22730   0.23890   0.28420   Biso      1.000     N          -0.198551           
         N3        1.0000    0.70190   0.28270   0.82840   Biso      1.000     N          -0.175229           
         N4        1.0000    0.85510   0.28800   0.93060   Biso      1.000     N          -0.020176           
         N5        1.0000    0.64730   0.16560   0.59360   Biso      1.000     N          -0.161874           
         N6        1.0000    0.64300   0.06270   0.56660   Biso      1.000     N          -0.182774           
         N7        1.0000    0.68700   0.15090   0.44980   Biso      1.000     N          -0.00124  
         N8        1.0000    0.30640   0.30810   0.26330   Biso      1.000     N          -0.220252           
         N9        1.0000    0.14440   0.38370   0.25490   Biso      1.000     N          -0.005898           
         N10       1.0000    0.69360   0.69190   0.73670   Biso      1.000     N          -0.220256           
         N11       1.0000    0.29810   0.71730   0.17160   Biso      1.000     N          -0.175233           
         N12       1.0000    0.14490   0.71200   0.06940   Biso      1.000     N          -0.020176           
         N13       1.0000    0.35270   0.83440   0.40640   Biso      1.000     N          -0.161874           
         N14       1.0000    0.35700   0.93730   0.43340   Biso      1.000     N          -0.182774           
         N15       1.0000    0.31300   0.84910   0.55020   Biso      1.000     N          -0.001239           
         N16       1.0000    0.77270   0.76110   0.71580   Biso      1.000     N          -0.198547           
         N17       1.0000    0.85560   0.61630   0.74510   Biso      1.000     N          -0.005898           
         N18       1.0000    0.29330   0.62410   0.12310   Biso      1.000     N          -0.222886           
         O1        1.0000    0.39610   0.22420   0.77870   Biso      1.000     O          -0.539697           
         O2        1.0000    0.39520   0.16020   0.63630   Biso      1.000     O          -0.586993           
         O3        1.0000    0.85210   0.02140   0.75880   Biso      1.000     O          -0.570517           
         O4        1.0000    0.86640   0.96450   0.61640   Biso      1.000     O          -0.57069  
         O5        1.0000    0.24050   0.36620   0.01980   Biso      1.000     O          -0.207609           
         O6        1.0000    0.61280   0.30260   0.14130   Biso      1.000     O          -0.187595           
         O7        1.0000    0.77080   0.48620   0.15230   Biso      1.000     O          -0.203263           
         O8        1.0000    0.39120   0.93250   0.21830   Biso      1.000     O          -0.553823           
         O9        1.0000    0.14790   0.97860   0.24120   Biso      1.000     O          -0.570517           
         O10       1.0000    0.60390   0.77580   0.22130   Biso      1.000     O          -0.539697           
         O11       1.0000    0.60480   0.83980   0.36370   Biso      1.000     O          -0.586993           
         O12       1.0000    0.13360   0.03550   0.38360   Biso      1.000     O          -0.57069  
         O13       1.0000    0.75950   0.63380   0.98020   Biso      1.000     O          -0.207609           
         O14       1.0000    0.38720   0.69740   0.85870   Biso      1.000     O          -0.187595           
         O15       1.0000    0.22920   0.51380   0.84770   Biso      1.000     O          -0.203263           
         O16       1.0000    0.59900   0.90150   0.78980   Biso      1.000     O          -0.539779           
         O17       1.0000    0.40100   0.09850   0.21020   Biso      1.000     O          -0.539779           
         O18       1.0000    0.60880   0.06750   0.78170   Biso      1.000     O          -0.553823 