
##########################################################################
#               Crystallographic Information Format file
#               Produced by PyCifRW module
#
#  This is a CIF file.  CIF has been adopted by the International
#  Union of Crystallography as the standard for data archiving and
#  transmission.
#
#  For information on this file format, follow the CIF links at
#  http://www.iucr.org
##########################################################################

data_image0

_cell_length_a                          11.671
_cell_length_b                          11.8916
_cell_length_c                          14.305
_cell_angle_alpha                       110.633
_cell_angle_beta                        99.92
_cell_angle_gamma                       101.351
_symmetry_space_group_name_H-M          'P 1'
_symmetry_int_tables_number             1
loop_
  _symmetry_equiv_pos_as_xyz
         'x, y, z' 
loop_
  _atom_site_label
  _atom_site_occupancy
  _atom_site_fract_x
  _atom_site_fract_y
  _atom_site_fract_z
  _atom_site_thermal_displace_type
  _atom_site_B_iso_or_equiv
  _atom_site_type_symbol
  _atom_site_charge
         C1        1.0000    0.81230   0.97040   0.38400   Biso      1.000     C          0.177014  
         C2        1.0000    0.07350   0.03320   0.62620   Biso      1.000     C          0.160951  
         C3        1.0000    0.34330   0.91250   0.57700   Biso      1.000     C          0.673201  
         C4        1.0000    0.10510   0.24980   0.09850   Biso      1.000     C          0.733594  
         C5        1.0000    0.17020   0.38790   0.15470   Biso      1.000     C          -0.21239299999999997          
         C6        1.0000    0.28930   0.43330   0.15710   Biso      1.000     C          0.167429  
         C7        1.0000    0.35320   0.55700   0.21350   Biso      1.000     C          0.161024  
         C8        1.0000    0.29820   0.64150   0.27020   Biso      1.000     C          -0.219906           
         C9        1.0000    0.17820   0.59640   0.26620   Biso      1.000     C          0.162262  
         C10       1.0000    0.11520   0.47150   0.20990   Biso      1.000     C          0.158601  
         C11       1.0000    0.18770   0.02960   0.61600   Biso      1.000     C          0.177017  
         C12       1.0000    0.37190   0.77180   0.34310   Biso      1.000     C          0.71225   
         C13       1.0000    0.73390   0.97990   0.12030   Biso      1.000     C          -0.22629499999999997          
         C14       1.0000    0.70100   0.08830   0.13050   Biso      1.000     C          0.181396  
         C15       1.0000    0.58850   0.09980   0.14450   Biso      1.000     C          0.15867   
         C16       1.0000    0.50560   0.00420   0.14990   Biso      1.000     C          -0.211083           
         C17       1.0000    0.53780   0.89610   0.13990   Biso      1.000     C          0.149606  
         C18       1.0000    0.64910   0.88390   0.12540   Biso      1.000     C          0.177304  
         C19       1.0000    0.38560   0.01680   0.17210   Biso      1.000     C          0.739987  
         C20       1.0000    0.13120   0.06580   0.35900   Biso      1.000     C          0.724358  
         C21       1.0000    0.01410   0.07310   0.38750   Biso      1.000     C          -0.21017600000000003          
         C22       1.0000    0.85620   0.96730   0.10890   Biso      1.000     C          0.68775   
         C23       1.0000    0.22030   0.91820   0.58720   Biso      1.000     C          -0.22709899999999997          
         C24       1.0000    0.13050   0.81070   0.57050   Biso      1.000     C          0.179175  
         C25       1.0000    0.01700   0.81640   0.58280   Biso      1.000     C          0.160627  
         C26       1.0000    0.65670   0.08750   0.42300   Biso      1.000     C          0.6732    
         C27       1.0000    0.92650   0.96680   0.37380   Biso      1.000     C          0.160955  
         C28       1.0000    0.77970   0.08180   0.41280   Biso      1.000     C          -0.22709899999999997          
         C29       1.0000    0.89490   0.75020   0.90150   Biso      1.000     C          0.733594  
         C30       1.0000    0.82980   0.61210   0.84530   Biso      1.000     C          -0.212392           
         C31       1.0000    0.71070   0.56670   0.84290   Biso      1.000     C          0.167429  
         C32       1.0000    0.64680   0.44300   0.78650   Biso      1.000     C          0.161023  
         C33       1.0000    0.70180   0.35850   0.72980   Biso      1.000     C          -0.21990500000000002          
         C34       1.0000    0.82180   0.40360   0.73380   Biso      1.000     C          0.162261  
         C35       1.0000    0.88480   0.52850   0.79010   Biso      1.000     C          0.158601  
         C36       1.0000    0.62810   0.22820   0.65690   Biso      1.000     C          0.71225   
         C37       1.0000    0.14380   0.03270   0.89110   Biso      1.000     C          0.68775   
         C38       1.0000    0.26610   0.02010   0.87970   Biso      1.000     C          -0.22629499999999997          
         C39       1.0000    0.29900   0.91170   0.86950   Biso      1.000     C          0.181396  
         C40       1.0000    0.41150   0.90020   0.85550   Biso      1.000     C          0.15867   
         C41       1.0000    0.49440   0.99580   0.85010   Biso      1.000     C          -0.211083           
         C42       1.0000    0.46220   0.10390   0.86010   Biso      1.000     C          0.149606  
         C43       1.0000    0.35090   0.11610   0.87460   Biso      1.000     C          0.177304  
         C44       1.0000    0.61440   0.98320   0.82790   Biso      1.000     C          0.739987  
         C45       1.0000    0.86880   0.93420   0.64100   Biso      1.000     C          0.724358  
         C46       1.0000    0.98590   0.92690   0.61250   Biso      1.000     C          -0.210175           
         C47       1.0000    0.98300   0.18360   0.41720   Biso      1.000     C          0.160625  
         C48       1.0000    0.86950   0.18930   0.42950   Biso      1.000     C          0.179178  
         Er1       1.0000    0.90152   0.02780   0.89531   Biso      1.000     Er          2.107725  
         Er2       1.0000    0.41570   0.08160   0.43075   Biso      1.000     Er          2.124243  
         Er3       1.0000    0.09848   0.97220   0.10469   Biso      1.000     Er          2.107725  
         Er4       1.0000    0.58430   0.91840   0.56925   Biso      1.000     Er          2.124244  
         F1        1.0000    0.53040   0.40480   0.78520   Biso      1.000     F          -0.098338           
         F2        1.0000    0.87690   0.32760   0.67750   Biso      1.000     F          -0.098262           
         F3        1.0000    0.99850   0.56850   0.78600   Biso      1.000     F          -0.100231           
         F4        1.0000    0.22110   0.81310   0.86910   Biso      1.000     F          -0.088528           
         F5        1.0000    0.43840   0.79300   0.84500   Biso      1.000     F          -0.096026           
         F6        1.0000    0.54020   0.19930   0.85470   Biso      1.000     F          -0.095006           
         F7        1.0000    0.32690   0.22400   0.88480   Biso      1.000     F          -0.084504           
         F8        1.0000    0.93520   0.71040   0.56660   Biso      1.000     F          -0.099935           
         F9        1.0000    0.15270   0.69960   0.54050   Biso      1.000     F          -0.08506799999999999          
         F10       1.0000    0.27010   0.13780   0.63970   Biso      1.000     F          -0.094439           
         F11       1.0000    0.72990   0.86220   0.36030   Biso      1.000     F          -0.094439           
         F12       1.0000    0.65300   0.64380   0.89540   Biso      1.000     F          -0.105672           
         F13       1.0000    0.46960   0.59520   0.21480   Biso      1.000     F          -0.098338           
         F14       1.0000    0.12310   0.67240   0.32250   Biso      1.000     F          -0.098262           
         F15       1.0000    0.00150   0.43150   0.21400   Biso      1.000     F          -0.100231           
         F16       1.0000    0.77890   0.18690   0.13090   Biso      1.000     F          -0.088528           
         F17       1.0000    0.56160   0.20700   0.15500   Biso      1.000     F          -0.096026           
         F18       1.0000    0.45980   0.80070   0.14530   Biso      1.000     F          -0.09500499999999999          
         F19       1.0000    0.67310   0.77600   0.11520   Biso      1.000     F          -0.084504           
         F20       1.0000    0.06480   0.28960   0.43340   Biso      1.000     F          -0.099935           
         F21       1.0000    0.84730   0.30040   0.45950   Biso      1.000     F          -0.08506799999999999          
         F22       1.0000    0.04780   0.14310   0.65510   Biso      1.000     F          -0.09314800000000001          
         F23       1.0000    0.34700   0.35620   0.10460   Biso      1.000     F          -0.105672           
         F24       1.0000    0.95220   0.85690   0.34490   Biso      1.000     F          -0.093149           
         O1        1.0000    0.21170   0.04910   0.41900   Biso      1.000     O          -0.6552359999999999           
         O2        1.0000    0.84910   0.81870   0.86650   Biso      1.000     O          -0.636761           
         O3        1.0000    0.98410   0.78230   0.97710   Biso      1.000     O          -0.669317           
         O4        1.0000    0.66540   0.13860   0.66700   Biso      1.000     O          -0.651003           
         O5        1.0000    0.53880   0.22220   0.59090   Biso      1.000     O          -0.673131           
         O6        1.0000    0.09180   0.08870   0.84680   Biso      1.000     O          -0.598495           
         O7        1.0000    0.09170   0.98150   0.94320   Biso      1.000     O          -0.7775489999999999           
         O8        1.0000    0.70200   0.00650   0.90290   Biso      1.000     O          -0.646141           
         O9        1.0000    0.61820   0.95360   0.73690   Biso      1.000     O          -0.6944279999999999           
         O10       1.0000    0.86230   0.91970   0.72180   Biso      1.000     O          -0.674006           
         O11       1.0000    0.78830   0.95090   0.58100   Biso      1.000     O          -0.6552359999999999           
         O12       1.0000    0.40620   0.99270   0.55140   Biso      1.000     O          -0.7848109999999999           
         O13       1.0000    0.38750   0.83350   0.59580   Biso      1.000     O          -0.590184           
         O14       1.0000    0.15090   0.18130   0.13350   Biso      1.000     O          -0.636761           
         O15       1.0000    0.01590   0.21770   0.02290   Biso      1.000     O          -0.669317           
         O16       1.0000    0.33460   0.86140   0.33300   Biso      1.000     O          -0.651003           
         O17       1.0000    0.46120   0.77780   0.40910   Biso      1.000     O          -0.673131           
         O18       1.0000    0.90820   0.91130   0.15320   Biso      1.000     O          -0.598495           
         O19       1.0000    0.90830   0.01850   0.05680   Biso      1.000     O          -0.7775489999999999           
         O20       1.0000    0.29800   0.99350   0.09710   Biso      1.000     O          -0.646141           
         O21       1.0000    0.38180   0.04640   0.26310   Biso      1.000     O          -0.6944279999999999           
         O22       1.0000    0.13770   0.08030   0.27820   Biso      1.000     O          -0.674006           
         O23       1.0000    0.61250   0.16650   0.40420   Biso      1.000     O          -0.590184           
         O24       1.0000    0.59380   0.00730   0.44860   Biso      1.000     O          -0.7848109999999999 