
##########################################################################
#               Crystallographic Information Format file
#               Produced by PyCifRW module
#
#  This is a CIF file.  CIF has been adopted by the International
#  Union of Crystallography as the standard for data archiving and
#  transmission.
#
#  For information on this file format, follow the CIF links at
#  http://www.iucr.org
##########################################################################

data_image0

_cell_length_a                          8.5247
_cell_length_b                          10.2004
_cell_length_c                          10.8898
_cell_angle_alpha                       63.722
_cell_angle_beta                        71.281
_cell_angle_gamma                       81.148
_symmetry_space_group_name_H-M          'P 1'
_symmetry_int_tables_number             1
loop_
  _symmetry_equiv_pos_as_xyz
         'x, y, z' 
loop_
  _atom_site_label
  _atom_site_occupancy
  _atom_site_fract_x
  _atom_site_fract_y
  _atom_site_fract_z
  _atom_site_thermal_displace_type
  _atom_site_B_iso_or_equiv
  _atom_site_type_symbol
  _atom_site_charge
         C1        1.0000    0.99635   0.52018   0.36615   Biso      1.000     C          -0.080553           
         C2        1.0000    0.58053   0.58079   0.85681   Biso      1.000     C          -0.10053  
         C3        1.0000    0.33444   0.52771   0.05568   Biso      1.000     C          -0.082256           
         C4        1.0000    0.41483   0.60932   0.91195   Biso      1.000     C          -0.010575           
         C5        1.0000    0.32183   0.72980   0.82143   Biso      1.000     C          0.602161  
         C6        1.0000    0.52389   0.90663   0.93412   Biso      1.000     C          -0.120327           
         C7        1.0000    0.63460   0.07196   0.98819   Biso      1.000     C          -0.115819           
         C8        1.0000    0.65771   0.97738   0.92300   Biso      1.000     C          0.001842  
         C9        1.0000    0.82742   0.95146   0.84085   Biso      1.000     C          0.593111  
         C10       1.0000    0.97397   0.36176   0.61362   Biso      1.000     C          -0.115223           
         C11       1.0000    0.17258   0.04854   0.15915   Biso      1.000     C          0.593111  
         C12       1.0000    0.34229   0.02262   0.07700   Biso      1.000     C          0.001843  
         C13       1.0000    0.36540   0.92804   0.01181   Biso      1.000     C          -0.11582  
         C14       1.0000    0.47611   0.09337   0.06588   Biso      1.000     C          -0.120328           
         C15       1.0000    0.67817   0.27020   0.17857   Biso      1.000     C          0.602159  
         C16       1.0000    0.58517   0.39068   0.08805   Biso      1.000     C          -0.010576           
         C17       1.0000    0.66556   0.47229   0.94432   Biso      1.000     C          -0.082252           
         C18       1.0000    0.41947   0.41921   0.14319   Biso      1.000     C          -0.100525           
         C19       1.0000    0.05726   0.74469   0.54485   Biso      1.000     C          0.661713  
         C20       1.0000    0.02872   0.61846   0.52043   Biso      1.000     C          -0.029469           
         C21       1.0000    0.00365   0.47982   0.63385   Biso      1.000     C          -0.080546           
         C22       1.0000    0.02603   0.63824   0.38638   Biso      1.000     C          -0.115216           
         C23       1.0000    0.94274   0.25531   0.45515   Biso      1.000     C          0.661713  
         C24       1.0000    0.97128   0.38154   0.47957   Biso      1.000     C          -0.029463           
         Er1       1.0000    0.13362   0.93626   0.66037   Biso      1.000     Er          2.027767  
         Er2       1.0000    0.86638   0.06374   0.33963   Biso      1.000     Er          2.027765  
         H1        1.0000    0.72100   0.11400   0.98400   Biso      1.000     H          0.125438  
         H2        1.0000    0.53800   0.84200   0.89900   Biso      1.000     H          0.112341  
         H3        1.0000    0.21300   0.54500   0.09000   Biso      1.000     H          0.113423  
         H4        1.0000    0.62600   0.63000   0.76100   Biso      1.000     H          0.118457  
         H5        1.0000    0.98500   0.53580   0.26930   Biso      1.000     H          0.127193  
         H6        1.0000    0.05100   0.73660   0.30360   Biso      1.000     H          0.119868  
         H7        1.0000    0.27900   0.88600   0.01600   Biso      1.000     H          0.125439  
         H8        1.0000    0.46200   0.15800   0.10100   Biso      1.000     H          0.112342  
         H9        1.0000    0.78700   0.45500   0.91000   Biso      1.000     H          0.113422  
         H10       1.0000    0.37400   0.37000   0.23900   Biso      1.000     H          0.118457  
         H11       1.0000    0.01500   0.46420   0.73070   Biso      1.000     H          0.127192  
         H12       1.0000    0.94900   0.26340   0.69640   Biso      1.000     H          0.119869  
         O1        1.0000    0.60628   0.19312   0.30907   Biso      1.000     O          -0.69848  
         O2        1.0000    0.82772   0.24608   0.12327   Biso      1.000     O          -0.61648  
         O3        1.0000    0.15325   0.12732   0.22681   Biso      1.000     O          -0.62838  
         O4        1.0000    0.05091   0.99064   0.16228   Biso      1.000     O          -0.627492           
         O5        1.0000    0.87473   0.28180   0.35999   Biso      1.000     O          -0.605653           
         O6        1.0000    0.17228   0.75392   0.87673   Biso      1.000     O          -0.616481           
         O7        1.0000    0.39372   0.80688   0.69093   Biso      1.000     O          -0.69848  
         O8        1.0000    0.84675   0.87268   0.77319   Biso      1.000     O          -0.62838  
         O9        1.0000    0.94909   0.00936   0.83772   Biso      1.000     O          -0.627492           
         O10       1.0000    0.01655   0.87284   0.47131   Biso      1.000     O          -0.772089           
         O11       1.0000    0.98345   0.12716   0.52869   Biso      1.000     O          -0.772089           
         O12       1.0000    0.12527   0.71820   0.64001   Biso      1.000     O          -0.605653 