
##########################################################################
#               Crystallographic Information Format file
#               Produced by PyCifRW module
#
#  This is a CIF file.  CIF has been adopted by the International
#  Union of Crystallography as the standard for data archiving and
#  transmission.
#
#  For information on this file format, follow the CIF links at
#  http://www.iucr.org
##########################################################################

data_image0

_cell_length_a                          8.5139
_cell_length_b                          10.2165
_cell_length_c                          11.0721
_cell_angle_alpha                       64.208
_cell_angle_beta                        71.563
_cell_angle_gamma                       80.752
_symmetry_space_group_name_H-M          'P 1'
_symmetry_int_tables_number             1
loop_
  _symmetry_equiv_pos_as_xyz
         'x, y, z' 
loop_
  _atom_site_label
  _atom_site_occupancy
  _atom_site_fract_x
  _atom_site_fract_y
  _atom_site_fract_z
  _atom_site_thermal_displace_type
  _atom_site_B_iso_or_equiv
  _atom_site_type_symbol
  _atom_site_charge
         C1        1.0000    0.66470   0.47180   0.45010   Biso      1.000     C          -0.09801  
         C2        1.0000    0.36630   0.93130   0.50850   Biso      1.000     C          -0.11086099999999999          
         C3        1.0000    0.47810   0.08890   0.56900   Biso      1.000     C          -0.11209300000000001          
         C4        1.0000    0.34270   0.02120   0.57780   Biso      1.000     C          -0.004635           
         C5        1.0000    0.17370   0.04660   0.66130   Biso      1.000     C          0.596037  
         C6        1.0000    0.03140   0.63420   0.88760   Biso      1.000     C          -0.11396400000000001          
         C7        1.0000    0.99640   0.48430   0.13120   Biso      1.000     C          -0.091154           
         C8        1.0000    0.02770   0.61920   0.01940   Biso      1.000     C          -0.024658000000000003         
         C9        1.0000    0.05600   0.74640   0.04270   Biso      1.000     C          0.6659    
         C10       1.0000    0.41740   0.42040   0.63840   Biso      1.000     C          -0.09564199999999999          
         C11       1.0000    0.94400   0.25360   0.95730   Biso      1.000     C          0.6658970000000001  
         C12       1.0000    0.97230   0.38080   0.98060   Biso      1.000     C          -0.024662           
         C13       1.0000    0.00360   0.51570   0.86880   Biso      1.000     C          -0.091146           
         C14       1.0000    0.96860   0.36580   0.11240   Biso      1.000     C          -0.11395699999999999          
         C15       1.0000    0.82630   0.95340   0.33870   Biso      1.000     C          0.596037  
         C16       1.0000    0.65730   0.97880   0.42220   Biso      1.000     C          -0.004632           
         C17       1.0000    0.52190   0.91110   0.43100   Biso      1.000     C          -0.11209100000000001          
         C18       1.0000    0.63370   0.06870   0.49150   Biso      1.000     C          -0.110858           
         C19       1.0000    0.32270   0.72760   0.32130   Biso      1.000     C          0.604658  
         C20       1.0000    0.41520   0.60820   0.41270   Biso      1.000     C          -0.0049   
         C21       1.0000    0.33530   0.52820   0.54990   Biso      1.000     C          -0.097999           
         C22       1.0000    0.58260   0.57960   0.36160   Biso      1.000     C          -0.095634           
         C23       1.0000    0.67730   0.27240   0.67870   Biso      1.000     C          0.604658  
         C24       1.0000    0.58480   0.39180   0.58730   Biso      1.000     C          -0.004893           
         Er1       1.0000    0.86652   0.06377   0.83769   Biso      1.000     Er          2.0319979999999997  
         Er2       1.0000    0.13348   0.93623   0.16231   Biso      1.000     Er          2.031997  
         H1        1.0000    0.99420   0.47360   0.21960   Biso      1.000     H          0.128892  
         H2        1.0000    0.05260   0.72410   0.81210   Biso      1.000     H          0.12128699999999999           
         H3        1.0000    0.46280   0.14840   0.61600   Biso      1.000     H          0.108392  
         H4        1.0000    0.27680   0.88500   0.51460   Biso      1.000     H          0.12328299999999999           
         H5        1.0000    0.77670   0.45300   0.41600   Biso      1.000     H          0.11892799999999999           
         H6        1.0000    0.63860   0.63240   0.26880   Biso      1.000     H          0.11836400000000001           
         H7        1.0000    0.00580   0.52640   0.78040   Biso      1.000     H          0.128891  
         H8        1.0000    0.94740   0.27590   0.18790   Biso      1.000     H          0.12128699999999999           
         H9        1.0000    0.53720   0.85160   0.38400   Biso      1.000     H          0.108392  
         H10       1.0000    0.72320   0.11500   0.48540   Biso      1.000     H          0.12328299999999999           
         H11       1.0000    0.22330   0.54700   0.58400   Biso      1.000     H          0.118927  
         H12       1.0000    0.36140   0.36760   0.73120   Biso      1.000     H          0.11836500000000001           
         O1        1.0000    0.84510   0.87740   0.26990   Biso      1.000     O          -0.624432           
         O2        1.0000    0.94860   0.01070   0.33650   Biso      1.000     O          -0.6355350000000001           
         O3        1.0000    0.87840   0.27660   0.86350   Biso      1.000     O          -0.605775           
         O4        1.0000    0.98420   0.12730   0.03300   Biso      1.000     O          -0.7754409999999999           
         O5        1.0000    0.60500   0.19650   0.80600   Biso      1.000     O          -0.7040420000000001           
         O6        1.0000    0.05140   0.98930   0.66350   Biso      1.000     O          -0.6355350000000001           
         O7        1.0000    0.15490   0.12260   0.73010   Biso      1.000     O          -0.624432           
         O8        1.0000    0.12160   0.72340   0.13650   Biso      1.000     O          -0.605776           
         O9        1.0000    0.01580   0.87270   0.96700   Biso      1.000     O          -0.7754409999999999           
         O10       1.0000    0.17340   0.75390   0.37300   Biso      1.000     O          -0.616614           
         O11       1.0000    0.82660   0.24610   0.62700   Biso      1.000     O          -0.616614           
         O12       1.0000    0.39500   0.80350   0.19400   Biso      1.000     O          -0.7040420000000001 