
##########################################################################
#               Crystallographic Information Format file
#               Produced by PyCifRW module
#
#  This is a CIF file.  CIF has been adopted by the International
#  Union of Crystallography as the standard for data archiving and
#  transmission.
#
#  For information on this file format, follow the CIF links at
#  http://www.iucr.org
##########################################################################

data_image0

_cell_length_a                          8.5139
_cell_length_b                          10.2165
_cell_length_c                          11.0721
_cell_angle_alpha                       64.208
_cell_angle_beta                        71.563
_cell_angle_gamma                       80.752
_symmetry_space_group_name_H-M          'P 1'
_symmetry_int_tables_number             1
loop_
  _symmetry_equiv_pos_as_xyz
         'x, y, z' 
loop_
  _atom_site_label
  _atom_site_occupancy
  _atom_site_fract_x
  _atom_site_fract_y
  _atom_site_fract_z
  _atom_site_thermal_displace_type
  _atom_site_B_iso_or_equiv
  _atom_site_type_symbol
  _atom_site_charge
         C1        1.0000    0.66480   0.47150   0.45010   Biso      1.000     C          -0.094797           
         C2        1.0000    0.36560   0.93140   0.50870   Biso      1.000     C          -0.107955           
         C3        1.0000    0.47760   0.08890   0.56930   Biso      1.000     C          -0.112357           
         C4        1.0000    0.34270   0.02110   0.57780   Biso      1.000     C          -0.006468000000000001         
         C5        1.0000    0.17360   0.04650   0.66140   Biso      1.000     C          0.596354  
         C6        1.0000    0.03070   0.63440   0.88750   Biso      1.000     C          -0.112303           
         C7        1.0000    0.99650   0.48430   0.13120   Biso      1.000     C          -0.088256           
         C8        1.0000    0.02760   0.61920   0.01950   Biso      1.000     C          -0.027882999999999998         
         C9        1.0000    0.05600   0.74640   0.04280   Biso      1.000     C          0.666345  
         C10       1.0000    0.41780   0.42010   0.63870   Biso      1.000     C          -0.093587           
         C11       1.0000    0.94400   0.25360   0.95720   Biso      1.000     C          0.666354  
         C12       1.0000    0.97240   0.38080   0.98050   Biso      1.000     C          -0.027886           
         C13       1.0000    0.00350   0.51570   0.86880   Biso      1.000     C          -0.088249           
         C14       1.0000    0.96930   0.36560   0.11250   Biso      1.000     C          -0.112293           
         C15       1.0000    0.82640   0.95350   0.33860   Biso      1.000     C          0.596348  
         C16       1.0000    0.65730   0.97890   0.42220   Biso      1.000     C          -0.006459           
         C17       1.0000    0.52240   0.91110   0.43070   Biso      1.000     C          -0.112357           
         C18       1.0000    0.63440   0.06860   0.49130   Biso      1.000     C          -0.10796199999999999          
         C19       1.0000    0.32270   0.72750   0.32130   Biso      1.000     C          0.605884  
         C20       1.0000    0.41550   0.60810   0.41270   Biso      1.000     C          -0.008824           
         C21       1.0000    0.33520   0.52850   0.54990   Biso      1.000     C          -0.094789           
         C22       1.0000    0.58220   0.57990   0.36130   Biso      1.000     C          -0.09358  
         C23       1.0000    0.67730   0.27250   0.67870   Biso      1.000     C          0.6058859999999999  
         C24       1.0000    0.58450   0.39190   0.58730   Biso      1.000     C          -0.008818000000000001         
         Er1       1.0000    0.86651   0.06379   0.83768   Biso      1.000     Er          2.0328180000000002  
         Er2       1.0000    0.13349   0.93621   0.16231   Biso      1.000     Er          2.0327830000000002  
         H1        1.0000    0.99400   0.47350   0.22150   Biso      1.000     H          0.12739   
         H2        1.0000    0.05160   0.72640   0.81040   Biso      1.000     H          0.12105999999999999           
         H3        1.0000    0.46170   0.14960   0.61740   Biso      1.000     H          0.107136  
         H4        1.0000    0.27410   0.88430   0.51490   Biso      1.000     H          0.122831  
         H5        1.0000    0.77910   0.45200   0.41520   Biso      1.000     H          0.11793800000000002           
         H6        1.0000    0.63930   0.63420   0.26650   Biso      1.000     H          0.11696400000000001           
         H7        1.0000    0.00600   0.52650   0.77850   Biso      1.000     H          0.12739   
         H8        1.0000    0.94840   0.27360   0.18960   Biso      1.000     H          0.12106199999999999           
         H9        1.0000    0.53830   0.85040   0.38260   Biso      1.000     H          0.10713699999999998           
         H10       1.0000    0.72590   0.11570   0.48510   Biso      1.000     H          0.12283   
         H11       1.0000    0.22090   0.54800   0.58480   Biso      1.000     H          0.11793699999999999           
         H12       1.0000    0.36070   0.36580   0.73350   Biso      1.000     H          0.11696400000000001           
         O1        1.0000    0.84500   0.87760   0.26980   Biso      1.000     O          -0.624052           
         O2        1.0000    0.94850   0.01080   0.33660   Biso      1.000     O          -0.6353810000000001           
         O3        1.0000    0.87820   0.27650   0.86350   Biso      1.000     O          -0.605754           
         O4        1.0000    0.98410   0.12720   0.03300   Biso      1.000     O          -0.775616           
         O5        1.0000    0.60500   0.19650   0.80590   Biso      1.000     O          -0.70413  
         O6        1.0000    0.05150   0.98920   0.66340   Biso      1.000     O          -0.6354029999999999           
         O7        1.0000    0.15500   0.12240   0.73020   Biso      1.000     O          -0.6240479999999999           
         O8        1.0000    0.12180   0.72350   0.13650   Biso      1.000     O          -0.605745           
         O9        1.0000    0.01590   0.87280   0.96700   Biso      1.000     O          -0.775601           
         O10       1.0000    0.17340   0.75380   0.37320   Biso      1.000     O          -0.617351           
         O11       1.0000    0.82660   0.24620   0.62680   Biso      1.000     O          -0.617372           
         O12       1.0000    0.39500   0.80350   0.19410   Biso      1.000     O          -0.704133 