
##########################################################################
#               Crystallographic Information Format file
#               Produced by PyCifRW module
#
#  This is a CIF file.  CIF has been adopted by the International
#  Union of Crystallography as the standard for data archiving and
#  transmission.
#
#  For information on this file format, follow the CIF links at
#  http://www.iucr.org
##########################################################################

data_image0

_cell_length_a                          8.158
_cell_length_b                          17.418
_cell_length_c                          17.558
_cell_angle_alpha                       90
_cell_angle_beta                        98.28
_cell_angle_gamma                       90
_symmetry_space_group_name_H-M          'P 1'
_symmetry_int_tables_number             1
loop_
  _symmetry_equiv_pos_as_xyz
         'x, y, z' 
loop_
  _atom_site_label
  _atom_site_occupancy
  _atom_site_fract_x
  _atom_site_fract_y
  _atom_site_fract_z
  _atom_site_thermal_displace_type
  _atom_site_B_iso_or_equiv
  _atom_site_type_symbol
  _atom_site_charge
         C1        1.0000    0.17110   0.87560   0.58850   Biso      1.000     C          -0.239175           
         C2        1.0000    0.20230   0.68870   0.72810   Biso      1.000     C          -0.192521           
         C3        1.0000    0.18650   0.66580   0.65140   Biso      1.000     C          0.228452  
         C4        1.0000    0.03540   0.68150   0.60520   Biso      1.000     C          -0.189153           
         C5        1.0000    0.91370   0.72030   0.63570   Biso      1.000     C          0.085895  
         C6        1.0000    0.52860   0.55700   0.68870   Biso      1.000     C          0.225614  
         C7        1.0000    0.69840   0.54830   0.71460   Biso      1.000     C          -0.188213           
         C8        1.0000    0.75950   0.47510   0.73600   Biso      1.000     C          0.098654  
         C9        1.0000    0.50240   0.42270   0.71120   Biso      1.000     C          0.101654  
         C10       1.0000    0.43140   0.49270   0.68830   Biso      1.000     C          -0.197006           
         C11       1.0000    0.94300   0.66140   0.16040   Biso      1.000     C          0.570999  
         C12       1.0000    0.81920   0.66280   0.08850   Biso      1.000     C          0.01003   
         C13       1.0000    0.84910   0.70220   0.02480   Biso      1.000     C          -0.158946           
         C14       1.0000    0.73170   0.70440   0.95960   Biso      1.000     C          0.020125  
         C15       1.0000    0.76880   0.74720   0.88920   Biso      1.000     C          0.564104  
         C16       1.0000    0.58380   0.66610   0.95790   Biso      1.000     C          -0.266479           
         C17       1.0000    0.07330   0.72600   0.75380   Biso      1.000     C          0.084268  
         C18       1.0000    0.55270   0.62680   0.02320   Biso      1.000     C          0.26609   
         C19       1.0000    0.63820   0.99600   0.55400   Biso      1.000     C          -0.143573           
         C20       1.0000    0.63720   0.95870   0.48420   Biso      1.000     C          0.106547  
         C21       1.0000    0.31350   0.16580   0.84860   Biso      1.000     C          0.228682  
         C22       1.0000    0.46460   0.18150   0.89480   Biso      1.000     C          -0.189583           
         C23       1.0000    0.58630   0.22030   0.86430   Biso      1.000     C          0.086135  
         C24       1.0000    0.97140   0.05700   0.81130   Biso      1.000     C          0.225593  
         C25       1.0000    0.80160   0.04830   0.78540   Biso      1.000     C          -0.189464           
         C26       1.0000    0.74050   0.97510   0.76400   Biso      1.000     C          0.098022  
         C27       1.0000    0.99760   0.92270   0.78880   Biso      1.000     C          0.101502  
         C28       1.0000    0.06860   0.99270   0.81170   Biso      1.000     C          -0.197909           
         C29       1.0000    0.44300   0.83860   0.66040   Biso      1.000     C          0.570377  
         C30       1.0000    0.34910   0.79780   0.52480   Biso      1.000     C          -0.154835           
         C31       1.0000    0.23170   0.79560   0.45960   Biso      1.000     C          0.021243  
         C32       1.0000    0.26880   0.75280   0.38920   Biso      1.000     C          0.564202  
         C33       1.0000    0.08380   0.83390   0.45790   Biso      1.000     C          -0.266172           
         C34       1.0000    0.05270   0.87320   0.52320   Biso      1.000     C          0.267838  
         C35       1.0000    0.78350   0.91240   0.46570   Biso      1.000     C          -0.065444           
         C36       1.0000    0.49750   0.96310   0.43150   Biso      1.000     C          -0.149236           
         C37       1.0000    0.29770   0.18870   0.77190   Biso      1.000     C          -0.193156           
         C38       1.0000    0.67110   0.62440   0.08850   Biso      1.000     C          -0.242228           
         C39       1.0000    0.13720   0.54130   0.98420   Biso      1.000     C          0.106763  
         C40       1.0000    0.82890   0.12440   0.41150   Biso      1.000     C          -0.239756           
         C41       1.0000    0.21650   0.08760   0.53430   Biso      1.000     C          -0.065452           
         C42       1.0000    0.36280   0.04130   0.51580   Biso      1.000     C          0.106663  
         C43       1.0000    0.50250   0.03690   0.56850   Biso      1.000     C          -0.148386           
         C44       1.0000    0.36180   0.00400   0.44600   Biso      1.000     C          -0.14438  
         C45       1.0000    0.92670   0.27400   0.24620   Biso      1.000     C          0.083752  
         C46       1.0000    0.79770   0.31130   0.27190   Biso      1.000     C          -0.192768           
         C47       1.0000    0.81350   0.33420   0.34860   Biso      1.000     C          0.228587  
         C48       1.0000    0.96460   0.31850   0.39480   Biso      1.000     C          -0.188985           
         C49       1.0000    0.08630   0.27970   0.36430   Biso      1.000     C          0.086066  
         C50       1.0000    0.47140   0.44300   0.31130   Biso      1.000     C          0.225564  
         C51       1.0000    0.30160   0.45170   0.28540   Biso      1.000     C          -0.188327           
         C52       1.0000    0.24050   0.52490   0.26400   Biso      1.000     C          0.098926  
         C53       1.0000    0.49760   0.57730   0.28880   Biso      1.000     C          0.101811  
         C54       1.0000    0.56860   0.50730   0.31170   Biso      1.000     C          -0.196723           
         C55       1.0000    0.94730   0.12680   0.47680   Biso      1.000     C          0.267945  
         C56       1.0000    0.28350   0.58760   0.96570   Biso      1.000     C          -0.064914           
         C57       1.0000    0.91620   0.16610   0.54210   Biso      1.000     C          -0.265084           
         C58       1.0000    0.76830   0.20440   0.54040   Biso      1.000     C          0.021989  
         C59       1.0000    0.99750   0.53690   0.93150   Biso      1.000     C          -0.148836           
         C60       1.0000    0.13820   0.50400   0.05400   Biso      1.000     C          -0.144124           
         C61       1.0000    0.57330   0.77400   0.25380   Biso      1.000     C          0.085267  
         C62       1.0000    0.70230   0.81130   0.22810   Biso      1.000     C          -0.196082           
         C63       1.0000    0.68650   0.83420   0.15140   Biso      1.000     C          0.225304  
         C64       1.0000    0.53540   0.81850   0.10520   Biso      1.000     C          -0.189845           
         C65       1.0000    0.41370   0.77970   0.13570   Biso      1.000     C          0.089238  
         C66       1.0000    0.02860   0.94300   0.18870   Biso      1.000     C          0.220874  
         C67       1.0000    0.19840   0.95170   0.21460   Biso      1.000     C          -0.189371           
         C68       1.0000    0.25950   0.02490   0.23600   Biso      1.000     C          0.101911  
         C69       1.0000    0.00240   0.07730   0.21120   Biso      1.000     C          0.103612  
         C70       1.0000    0.93140   0.00730   0.18830   Biso      1.000     C          -0.198441           
         C71       1.0000    0.55700   0.16140   0.33960   Biso      1.000     C          0.570914  
         C72       1.0000    0.68080   0.16280   0.41150   Biso      1.000     C          0.010984  
         C73       1.0000    0.65090   0.20220   0.47520   Biso      1.000     C          -0.154588           
         C74       1.0000    0.73120   0.24720   0.61080   Biso      1.000     C          0.563519  
         C75       1.0000    0.42670   0.22600   0.74620   Biso      1.000     C          0.083692  
         C76       1.0000    0.31920   0.83720   0.58850   Biso      1.000     C          0.011393  
         C77       1.0000    0.00250   0.46310   0.06850   Biso      1.000     C          -0.149565           
         C78       1.0000    0.05700   0.33860   0.83960   Biso      1.000     C          0.570674  
         C79       1.0000    0.18080   0.33720   0.91150   Biso      1.000     C          0.011172  
         C80       1.0000    0.26830   0.29560   0.04040   Biso      1.000     C          0.021321  
         C81       1.0000    0.23120   0.25280   0.11080   Biso      1.000     C          0.564108  
         C82       1.0000    0.15090   0.29780   0.97520   Biso      1.000     C          -0.154196           
         C83       1.0000    0.44730   0.37320   0.97680   Biso      1.000     C          0.268313  
         C84       1.0000    0.32890   0.37560   0.91150   Biso      1.000     C          -0.238738           
         C85       1.0000    0.71650   0.41240   0.03430   Biso      1.000     C          -0.065386           
         C86       1.0000    0.86280   0.45870   0.01580   Biso      1.000     C          0.106241  
         C87       1.0000    0.41620   0.33390   0.04210   Biso      1.000     C          -0.265234           
         C88       1.0000    0.86180   0.49600   0.94600   Biso      1.000     C          -0.143781           
         H1        1.0000    0.73140   0.99320   0.59120   Biso      1.000     H          0.103505  
         H2        1.0000    0.15090   0.90280   0.63170   Biso      1.000     H          0.133215  
         H3        1.0000    0.82530   0.93460   0.42160   Biso      1.000     H          0.097439  
         H4        1.0000    0.74900   0.86020   0.45290   Biso      1.000     H          0.10071   
         H5        1.0000    0.49410   0.93770   0.38460   Biso      1.000     H          0.107472  
         H6        1.0000    0.87230   0.46980   0.75270   Biso      1.000     H          0.102364  
         H7        1.0000    0.01760   0.66570   0.55410   Biso      1.000     H          0.147212  
         H8        1.0000    0.81530   0.73120   0.60380   Biso      1.000     H          0.110727  
         H9        1.0000    0.76920   0.59040   0.71760   Biso      1.000     H          0.137208  
         H10       1.0000    0.00580   0.83350   0.41370   Biso      1.000     H          0.131748  
         H11       1.0000    0.43420   0.37990   0.71110   Biso      1.000     H          0.10043   
         H12       1.0000    0.08560   0.74020   0.80530   Biso      1.000     H          0.103337  
         H13       1.0000    0.44910   0.77210   0.52530   Biso      1.000     H          0.123426  
         H14       1.0000    0.48240   0.16570   0.94590   Biso      1.000     H          0.146965  
         H15       1.0000    0.06580   0.87990   0.78890   Biso      1.000     H          0.100405  
         H16       1.0000    0.62770   0.96980   0.74730   Biso      1.000     H          0.102189  
         H17       1.0000    0.73080   0.09040   0.78240   Biso      1.000     H          0.137092  
         H18       1.0000    0.68470   0.23120   0.89620   Biso      1.000     H          0.110775  
         H19       1.0000    0.31780   0.49620   0.67270   Biso      1.000     H          0.139506  
         H20       1.0000    0.20070   0.17880   0.73860   Biso      1.000     H          0.142447  
         H21       1.0000    0.41440   0.24020   0.69470   Biso      1.000     H          0.102988  
         H22       1.0000    0.76860   0.49320   0.90880   Biso      1.000     H          0.103117  
         H23       1.0000    0.00590   0.43770   0.11540   Biso      1.000     H          0.107417  
         H24       1.0000    0.75100   0.36020   0.04710   Biso      1.000     H          0.100462  
         H25       1.0000    0.67470   0.43460   0.07840   Biso      1.000     H          0.098058  
         H26       1.0000    0.34910   0.40280   0.86830   Biso      1.000     H          0.133186  
         H27       1.0000    0.49420   0.33350   0.08630   Biso      1.000     H          0.132409  
         H28       1.0000    0.05090   0.27210   0.97470   Biso      1.000     H          0.123296  
         H29       1.0000    0.18220   0.99620   0.82730   Biso      1.000     H          0.139375  
         H30       1.0000    0.94910   0.72790   0.02530   Biso      1.000     H          0.122903  
         H31       1.0000    0.29930   0.67880   0.76140   Biso      1.000     H          0.142768  
         H32       1.0000    0.65090   0.59720   0.13170   Biso      1.000     H          0.132412  
         H33       1.0000    0.68220   0.50380   0.32730   Biso      1.000     H          0.139545  
         H34       1.0000    0.50580   0.66650   0.91370   Biso      1.000     H          0.131871  
         H35       1.0000    0.12770   0.53020   0.24730   Biso      1.000     H          0.102491  
         H36       1.0000    0.23080   0.40960   0.28240   Biso      1.000     H          0.137157  
         H37       1.0000    0.18470   0.26880   0.39620   Biso      1.000     H          0.110815  
         H38       1.0000    0.98240   0.33430   0.44590   Biso      1.000     H          0.147434  
         H39       1.0000    0.70070   0.32120   0.23860   Biso      1.000     H          0.142632  
         H40       1.0000    0.91440   0.25980   0.19470   Biso      1.000     H          0.103152  
         H41       1.0000    0.26860   0.00680   0.40880   Biso      1.000     H          0.102956  
         H42       1.0000    0.50590   0.06230   0.61540   Biso      1.000     H          0.108007  
         H43       1.0000    0.25100   0.13980   0.54710   Biso      1.000     H          0.101001  
         H44       1.0000    0.17470   0.06540   0.57840   Biso      1.000     H          0.098179  
         H45       1.0000    0.84910   0.09720   0.36830   Biso      1.000     H          0.132686  
         H46       1.0000    0.56580   0.62010   0.28890   Biso      1.000     H          0.100323  
         H47       1.0000    0.55090   0.22790   0.47470   Biso      1.000     H          0.123431  
         H48       1.0000    0.99420   0.16650   0.58630   Biso      1.000     H          0.132706  
         H49       1.0000    0.32530   0.56540   0.92160   Biso      1.000     H          0.096941  
         H50       1.0000    0.24900   0.63980   0.95290   Biso      1.000     H          0.09989   
         H51       1.0000    0.23140   0.50680   0.09120   Biso      1.000     H          0.103126  
         H52       1.0000    0.58560   0.75980   0.30530   Biso      1.000     H          0.103228  
         H53       1.0000    0.79930   0.82120   0.26140   Biso      1.000     H          0.143056  
         H54       1.0000    0.99410   0.56230   0.88460   Biso      1.000     H          0.107639  
         H55       1.0000    0.31530   0.76880   0.10380   Biso      1.000     H          0.111419  
         H56       1.0000    0.26920   0.90960   0.21760   Biso      1.000     H          0.136707  
         H57       1.0000    0.37230   0.03020   0.25270   Biso      1.000     H          0.102495  
         H58       1.0000    0.93420   0.12010   0.21110   Biso      1.000     H          0.100612  
         H59       1.0000    0.81780   0.00380   0.17270   Biso      1.000     H          0.141242  
         H60       1.0000    0.51760   0.83430   0.05410   Biso      1.000     H          0.147909  
         N1        1.0000    0.33280   0.58590   0.26640   Biso      1.000     N          -0.201363           
         N2        1.0000    0.66720   0.41410   0.73360   Biso      1.000     N          -0.201636           
         N3        1.0000    0.53290   0.37320   0.33670   Biso      1.000     N          -0.098505           
         N4        1.0000    0.68960   0.37070   0.37930   Biso      1.000     N          -0.144057           
         N5        1.0000    0.07030   0.25660   0.29060   Biso      1.000     N          -0.218109           
         N6        1.0000    0.16720   0.08590   0.23360   Biso      1.000     N          -0.200125           
         N7        1.0000    0.96710   0.87320   0.16330   Biso      1.000     N          -0.080374           
         N8        1.0000    0.81040   0.87070   0.12070   Biso      1.000     N          -0.127407           
         N9        1.0000    0.42970   0.75660   0.20940   Biso      1.000     N          -0.217169           
         N10       1.0000    0.46710   0.62680   0.66330   Biso      1.000     N          -0.098264           
         N11       1.0000    0.03290   0.12680   0.83670   Biso      1.000     N          -0.099575           
         N12       1.0000    0.92970   0.74340   0.70940   Biso      1.000     N          -0.217274           
         N13       1.0000    0.83280   0.91410   0.76640   Biso      1.000     N          -0.202127           
         N14       1.0000    0.18960   0.12930   0.87930   Biso      1.000     N          -0.145422           
         N15       1.0000    0.57030   0.24340   0.79060   Biso      1.000     N          -0.217824           
         N16       1.0000    0.31040   0.62930   0.62070   Biso      1.000     N          -0.144169           
         O1        1.0000    0.59610   0.28110   0.60980   Biso      1.000     O          -0.583904           
         O2        1.0000    0.58030   0.12240   0.28370   Biso      1.000     O          -0.566505           
         O3        1.0000    0.42670   0.20400   0.34070   Biso      1.000     O          -0.573723           
         O4        1.0000    0.16030   0.75320   0.33010   Biso      1.000     O          -0.547367           
         O5        1.0000    0.40950   0.58770   0.02970   Biso      1.000     O          -0.182873           
         O6        1.0000    0.66030   0.74680   0.83010   Biso      1.000     O          -0.546021           
         O7        1.0000    0.90390   0.78110   0.89020   Biso      1.000     O          -0.584702           
         O8        1.0000    0.91970   0.62240   0.21630   Biso      1.000     O          -0.567038           
         O9        1.0000    0.07330   0.70400   0.15930   Biso      1.000     O          -0.575808           
         O10       1.0000    0.90950   0.91230   0.52970   Biso      1.000     O          -0.178578           
         O11       1.0000    0.40390   0.71890   0.39020   Biso      1.000     O          -0.583711           
         O12       1.0000    0.09050   0.08770   0.47030   Biso      1.000     O          -0.178786           
         O13       1.0000    0.57330   0.79600   0.65930   Biso      1.000     O          -0.573847           
         O14       1.0000    0.59050   0.41230   0.97030   Biso      1.000     O          -0.177731           
         O15       1.0000    0.33970   0.25320   0.16990   Biso      1.000     O          -0.545898           
         O16       1.0000    0.09610   0.21890   0.10980   Biso      1.000     O          -0.586213           
         O17       1.0000    0.08030   0.37760   0.78370   Biso      1.000     O          -0.564822           
         O18       1.0000    0.92670   0.29600   0.84070   Biso      1.000     O          -0.573926           
         O19       1.0000    0.83970   0.24680   0.66990   Biso      1.000     O          -0.545256           
         O20       1.0000    0.41970   0.87760   0.71630   Biso      1.000     O          -0.56434  
         Zn1       1.0000    0.25419   0.19417   0.25174   Biso      1.000     Zn          0.745755  
         Zn2       1.0000    0.24581   0.69417   0.24826   Biso      1.000     Zn          0.745308  
         Zn3       1.0000    0.74581   0.80583   0.74826   Biso      1.000     Zn          0.745581  
         Zn4       1.0000    0.75419   0.30583   0.75174   Biso      1.000     Zn          0.746016 