
##########################################################################
#               Crystallographic Information Format file
#               Produced by PyCifRW module
#
#  This is a CIF file.  CIF has been adopted by the International
#  Union of Crystallography as the standard for data archiving and
#  transmission.
#
#  For information on this file format, follow the CIF links at
#  http://www.iucr.org
##########################################################################

data_image0

_cell_length_a                          8.0062
_cell_length_b                          12.7171
_cell_length_c                          12.7171
_cell_angle_alpha                       106.16
_cell_angle_beta                        102.608
_cell_angle_gamma                       77.3925
_symmetry_space_group_name_H-M          'P 1'
_symmetry_int_tables_number             1
loop_
  _symmetry_equiv_pos_as_xyz
         'x, y, z' 
loop_
  _atom_site_label
  _atom_site_occupancy
  _atom_site_fract_x
  _atom_site_fract_y
  _atom_site_fract_z
  _atom_site_thermal_displace_type
  _atom_site_B_iso_or_equiv
  _atom_site_type_symbol
  _atom_site_charge
         C1        1.0000    0.09620   0.07850   0.68750   Biso      1.000     C          -0.250672           
         C2        1.0000    0.42360   0.36058   0.89062   Biso      1.000     C          -0.012643999999999999         
         C3        1.0000    0.31860   0.41097   0.97043   Biso      1.000     C          -0.161179           
         C4        1.0000    0.38600   0.40904   0.08196   Biso      1.000     C          0.00763   
         C5        1.0000    0.27070   0.45372   0.16728   Biso      1.000     C          0.5783159999999999  
         C6        1.0000    0.91140   0.90910   0.88690   Biso      1.000     C          -0.140005           
         C7        1.0000    0.76360   0.96420   0.83200   Biso      1.000     C          -0.157006           
         C8        1.0000    0.60080   0.95230   0.84230   Biso      1.000     C          0.10603499999999999           
         C9        1.0000    0.36100   0.35972   0.76988   Biso      1.000     C          0.6430239999999999  
         C10       1.0000    0.44220   0.01050   0.78230   Biso      1.000     C          -0.06806  
         C11       1.0000    0.16220   0.96826   0.68554   Biso      1.000     C          0.27578   
         C12       1.0000    0.86100   0.23012   0.64028   Biso      1.000     C          0.642992  
         C13       1.0000    0.92360   0.10938   0.63942   Biso      1.000     C          -0.012636           
         C14       1.0000    0.81860   0.02957   0.58903   Biso      1.000     C          -0.16123800000000002          
         C15       1.0000    0.88600   0.91804   0.59096   Biso      1.000     C          0.007684999999999999          
         C16       1.0000    0.77070   0.83272   0.54628   Biso      1.000     C          0.578322  
         C17       1.0000    0.73640   0.83200   0.96420   Biso      1.000     C          -0.157006           
         C18       1.0000    0.05550   0.88805   0.63735   Biso      1.000     C          -0.20663800000000002          
         C19       1.0000    0.89920   0.84230   0.95230   Biso      1.000     C          0.10603299999999999           
         C20       1.0000    0.59620   0.31250   0.92150   Biso      1.000     C          -0.250771           
         C21       1.0000    0.55550   0.36265   0.11195   Biso      1.000     C          -0.20664200000000002          
         C22       1.0000    0.08860   0.09090   0.11310   Biso      1.000     C          -0.140005           
         C23       1.0000    0.23640   0.03580   0.16800   Biso      1.000     C          -0.157006           
         C24       1.0000    0.39920   0.04770   0.15770   Biso      1.000     C          0.10603499999999999           
         C25       1.0000    0.55780   0.98950   0.21770   Biso      1.000     C          -0.06806  
         C26       1.0000    0.94450   0.11195   0.36265   Biso      1.000     C          -0.206641           
         C27       1.0000    0.83780   0.03174   0.31446   Biso      1.000     C          0.27578   
         C28       1.0000    0.90380   0.92150   0.31250   Biso      1.000     C          -0.250673           
         C29       1.0000    0.66220   0.31446   0.03174   Biso      1.000     C          0.275871  
         C30       1.0000    0.13900   0.76988   0.35972   Biso      1.000     C          0.642992  
         C31       1.0000    0.18140   0.97043   0.41097   Biso      1.000     C          -0.161241           
         C32       1.0000    0.11400   0.08196   0.40904   Biso      1.000     C          0.0076879999999999995         
         C33       1.0000    0.22930   0.16728   0.45372   Biso      1.000     C          0.578322  
         C34       1.0000    0.41140   0.11310   0.09090   Biso      1.000     C          -0.139992           
         C35       1.0000    0.26360   0.16800   0.03580   Biso      1.000     C          -0.157006           
         C36       1.0000    0.10080   0.15770   0.04770   Biso      1.000     C          0.10603299999999999           
         C37       1.0000    0.94220   0.21770   0.98950   Biso      1.000     C          -0.068078           
         C38       1.0000    0.07640   0.89062   0.36058   Biso      1.000     C          -0.012633           
         C39       1.0000    0.05780   0.78230   0.01050   Biso      1.000     C          -0.068078           
         C40       1.0000    0.58860   0.88690   0.90910   Biso      1.000     C          -0.139992           
         C41       1.0000    0.33780   0.68554   0.96826   Biso      1.000     C          0.275871  
         C42       1.0000    0.40380   0.68750   0.07850   Biso      1.000     C          -0.250771           
         C43       1.0000    0.63900   0.64028   0.23012   Biso      1.000     C          0.6430239999999999  
         C44       1.0000    0.57640   0.63942   0.10938   Biso      1.000     C          -0.012643999999999999         
         C45       1.0000    0.68140   0.58903   0.02957   Biso      1.000     C          -0.161179           
         C46       1.0000    0.61400   0.59096   0.91804   Biso      1.000     C          0.007629  
         C47       1.0000    0.72930   0.54628   0.83272   Biso      1.000     C          0.5783159999999999  
         C48       1.0000    0.44450   0.63735   0.88805   Biso      1.000     C          -0.20664200000000002          
         H1        1.0000    0.77420   0.00930   0.78810   Biso      1.000     H          0.100966  
         H2        1.0000    0.38550   0.07220   0.83400   Biso      1.000     H          0.092169  
         H3        1.0000    0.47260   0.03910   0.72710   Biso      1.000     H          0.10666700000000001           
         H4        1.0000    0.09960   0.81400   0.63680   Biso      1.000     H          0.1474    
         H5        1.0000    0.16630   0.13230   0.72090   Biso      1.000     H          0.13303399999999999           
         H6        1.0000    0.70540   0.04940   0.55460   Biso      1.000     H          0.131054  
         H7        1.0000    0.02740   0.72710   0.03910   Biso      1.000     H          0.1067    
         H8        1.0000    0.72580   0.78810   0.00930   Biso      1.000     H          0.100966  
         H9        1.0000    0.11450   0.83400   0.07220   Biso      1.000     H          0.092165  
         H10       1.0000    0.40040   0.63680   0.81400   Biso      1.000     H          0.1474    
         H11       1.0000    0.33370   0.72090   0.13230   Biso      1.000     H          0.133042  
         H12       1.0000    0.79460   0.55460   0.04940   Biso      1.000     H          0.131044  
         H13       1.0000    0.47960   0.87920   0.91740   Biso      1.000     H          0.11136099999999999           
         H14       1.0000    0.20540   0.44540   0.95060   Biso      1.000     H          0.131044  
         H15       1.0000    0.02040   0.91740   0.87920   Biso      1.000     H          0.11136800000000001           
         H16       1.0000    0.59960   0.36320   0.18600   Biso      1.000     H          0.147401  
         H17       1.0000    0.97960   0.08260   0.12080   Biso      1.000     H          0.11136800000000001           
         H18       1.0000    0.66630   0.27910   0.86770   Biso      1.000     H          0.133043  
         H19       1.0000    0.22580   0.99070   0.21190   Biso      1.000     H          0.100966  
         H20       1.0000    0.61450   0.92780   0.16600   Biso      1.000     H          0.092169  
         H21       1.0000    0.90040   0.18600   0.36320   Biso      1.000     H          0.1474    
         H22       1.0000    0.52740   0.96090   0.27290   Biso      1.000     H          0.10666700000000001           
         H23       1.0000    0.29460   0.95060   0.44540   Biso      1.000     H          0.131054  
         H24       1.0000    0.52040   0.12080   0.08260   Biso      1.000     H          0.11136099999999999           
         H25       1.0000    0.27420   0.21190   0.99070   Biso      1.000     H          0.100966  
         H26       1.0000    0.88550   0.16600   0.92780   Biso      1.000     H          0.092165  
         H27       1.0000    0.97260   0.27290   0.96090   Biso      1.000     H          0.1067    
         H28       1.0000    0.83370   0.86770   0.27910   Biso      1.000     H          0.13303399999999999           
         O1        1.0000    0.33380   0.45823   0.26895   Biso      1.000     O          -0.590796           
         O2        1.0000    0.32900   0.93052   0.72990   Biso      1.000     O          -0.195665           
         O3        1.0000    0.11220   0.48537   0.13713   Biso      1.000     O          -0.521975           
         O4        1.0000    0.22860   0.42634   0.74290   Biso      1.000     O          -0.60021  
         O5        1.0000    0.82900   0.27010   0.06948   Biso      1.000     O          -0.195698           
         O6        1.0000    0.27140   0.74290   0.42634   Biso      1.000     O          -0.600194           
         O7        1.0000    0.16620   0.26895   0.45823   Biso      1.000     O          -0.590823           
         O8        1.0000    0.38780   0.13713   0.48537   Biso      1.000     O          -0.521983           
         O9        1.0000    0.95290   0.29641   0.70539   Biso      1.000     O          -0.541569           
         O10       1.0000    0.45290   0.29461   0.70359   Biso      1.000     O          -0.541571           
         O11       1.0000    0.72860   0.25710   0.57366   Biso      1.000     O          -0.600194           
         O12       1.0000    0.67100   0.06948   0.27010   Biso      1.000     O          -0.195665           
         O13       1.0000    0.61220   0.86287   0.51463   Biso      1.000     O          -0.521983           
         O14       1.0000    0.17100   0.72990   0.93052   Biso      1.000     O          -0.195698           
         O15       1.0000    0.54710   0.70539   0.29641   Biso      1.000     O          -0.541571           
         O16       1.0000    0.77140   0.57366   0.25710   Biso      1.000     O          -0.60021  
         O17       1.0000    0.66620   0.54177   0.73105   Biso      1.000     O          -0.590796           
         O18       1.0000    0.88780   0.51463   0.86287   Biso      1.000     O          -0.521975           
         O19       1.0000    0.04710   0.70359   0.29461   Biso      1.000     O          -0.541569           
         O20       1.0000    0.83380   0.73105   0.54177   Biso      1.000     O          -0.590823           
         Zn1       1.0000    0.46822   0.28606   0.54300   Biso      1.000     Zn          1.013013  
         Zn2       1.0000    0.03178   0.54300   0.28606   Biso      1.000     Zn          1.013012  
         Zn3       1.0000    0.53178   0.71394   0.45700   Biso      1.000     Zn          1.013013  
         Zn4       1.0000    0.96822   0.45700   0.71394   Biso      1.000     Zn          1.013012 