
##########################################################################
#               Crystallographic Information Format file
#               Produced by PyCifRW module
#
#  This is a CIF file.  CIF has been adopted by the International
#  Union of Crystallography as the standard for data archiving and
#  transmission.
#
#  For information on this file format, follow the CIF links at
#  http://www.iucr.org
##########################################################################

data_image0

_cell_length_a                          16
_cell_length_b                          19.198
_cell_length_c                          21.411
_cell_angle_alpha                       90
_cell_angle_beta                        90
_cell_angle_gamma                       99.861
_symmetry_space_group_name_H-M          'P 1'
_symmetry_int_tables_number             1
loop_
  _symmetry_equiv_pos_as_xyz
         'x, y, z' 
loop_
  _atom_site_label
  _atom_site_occupancy
  _atom_site_fract_x
  _atom_site_fract_y
  _atom_site_fract_z
  _atom_site_thermal_displace_type
  _atom_site_B_iso_or_equiv
  _atom_site_type_symbol
  _atom_site_charge
         C1        1.0000    0.77312   0.97697   0.58080   Biso      1.000     C          -0.220278           
         C2        1.0000    0.22192   0.07141   0.16122   Biso      1.000     C          0.56859   
         C3        1.0000    0.23521   0.01877   0.35506   Biso      1.000     C          0.276695  
         C4        1.0000    0.29119   0.01065   0.45907   Biso      1.000     C          0.003985  
         C5        1.0000    0.30600   0.99586   0.33067   Biso      1.000     C          -0.226019           
         C6        1.0000    0.10449   0.11361   0.18447   Biso      1.000     C          0.570145  
         C7        1.0000    0.16908   0.05870   0.25783   Biso      1.000     C          0.574514  
         C8        1.0000    0.22688   0.02303   0.41920   Biso      1.000     C          -0.220265           
         C9        1.0000    0.96619   0.15470   0.19743   Biso      1.000     C          0.264178  
         C10       1.0000    0.70020   0.42218   0.55846   Biso      1.000     C          0.287211  
         C11       1.0000    0.07552   0.39768   0.73549   Biso      1.000     C          -0.194408           
         C12       1.0000    0.36534   0.99317   0.43439   Biso      1.000     C          -0.141879           
         C13       1.0000    0.75090   0.38810   0.52107   Biso      1.000     C          -0.196404           
         C14       1.0000    0.73060   0.37580   0.45920   Biso      1.000     C          -0.077153           
         C15       1.0000    0.65781   0.39396   0.43320   Biso      1.000     C          -0.047437           
         C16       1.0000    0.60620   0.42560   0.47158   Biso      1.000     C          -0.083174           
         C17       1.0000    0.63690   0.38372   0.36554   Biso      1.000     C          0.622241  
         C18       1.0000    0.62740   0.44070   0.53300   Biso      1.000     C          -0.221383           
         C19       1.0000    0.14527   0.27698   0.71507   Biso      1.000     C          -0.006054           
         C20       1.0000    0.15264   0.39060   0.76314   Biso      1.000     C          0.010059  
         C21       1.0000    0.20170   0.45174   0.79893   Biso      1.000     C          0.607568  
         C22       1.0000    0.18591   0.32978   0.75368   Biso      1.000     C          -0.135567           
         C23       1.0000    0.18290   0.21106   0.70363   Biso      1.000     C          0.628947  
         C24       1.0000    0.71711   0.48025   0.02860   Biso      1.000     C          0.619265  
         C25       1.0000    0.62833   0.51592   0.87063   Biso      1.000     C          0.001377  
         C26       1.0000    0.93094   0.21547   0.18559   Biso      1.000     C          -0.22019  
         C27       1.0000    0.92448   0.10232   0.23549   Biso      1.000     C          -0.194419           
         C28       1.0000    0.77808   0.42859   0.66122   Biso      1.000     C          0.568585  
         C29       1.0000    0.76479   0.48123   0.85506   Biso      1.000     C          0.276684  
         C30       1.0000    0.70881   0.48935   0.95907   Biso      1.000     C          0.003951  
         C31       1.0000    0.69400   0.50414   0.83067   Biso      1.000     C          -0.226011           
         C32       1.0000    0.89551   0.38639   0.68447   Biso      1.000     C          0.570136  
         C33       1.0000    0.83092   0.44130   0.75783   Biso      1.000     C          0.574508  
         C34       1.0000    0.77312   0.47697   0.91920   Biso      1.000     C          -0.220272           
         C35       1.0000    0.03381   0.34530   0.69743   Biso      1.000     C          0.26417   
         C36       1.0000    0.45031   0.96336   0.34258   Biso      1.000     C          0.64168   
         C37       1.0000    0.37167   0.98408   0.37063   Biso      1.000     C          0.001388  
         C38       1.0000    0.29980   0.07782   0.05846   Biso      1.000     C          0.287216  
         C39       1.0000    0.81710   0.28894   0.20363   Biso      1.000     C          0.628954  
         C40       1.0000    0.79830   0.04826   0.29893   Biso      1.000     C          0.607561  
         C41       1.0000    0.84736   0.10940   0.26314   Biso      1.000     C          0.010061  
         C42       1.0000    0.85473   0.22302   0.21507   Biso      1.000     C          -0.00605  
         C43       1.0000    0.37260   0.05930   0.03300   Biso      1.000     C          -0.221388           
         C44       1.0000    0.36310   0.11628   0.86554   Biso      1.000     C          0.62225   
         C45       1.0000    0.39380   0.07440   0.97158   Biso      1.000     C          -0.083162           
         C46       1.0000    0.34219   0.10604   0.93320   Biso      1.000     C          -0.047404           
         C47       1.0000    0.26940   0.12420   0.95920   Biso      1.000     C          -0.077142           
         C48       1.0000    0.28289   0.01975   0.52860   Biso      1.000     C          0.619266  
         C49       1.0000    0.24910   0.11190   0.02107   Biso      1.000     C          -0.196388           
         C50       1.0000    0.81409   0.17022   0.25368   Biso      1.000     C          -0.135562           
         C51       1.0000    0.54969   0.53664   0.84258   Biso      1.000     C          0.641664  
         C52       1.0000    0.03381   0.84530   0.80257   Biso      1.000     C          0.264164  
         C53       1.0000    0.83092   0.94130   0.74217   Biso      1.000     C          0.574516  
         C54       1.0000    0.30600   0.49586   0.16933   Biso      1.000     C          -0.226028           
         C55       1.0000    0.29119   0.51065   0.04093   Biso      1.000     C          0.003957  
         C56       1.0000    0.23521   0.51877   0.14494   Biso      1.000     C          0.276682  
         C57       1.0000    0.22192   0.57141   0.33878   Biso      1.000     C          0.568576  
         C58       1.0000    0.36534   0.49317   0.06561   Biso      1.000     C          -0.141896           
         C59       1.0000    0.93094   0.71547   0.31441   Biso      1.000     C          -0.220197           
         C60       1.0000    0.29980   0.57782   0.44154   Biso      1.000     C          0.287196  
         C61       1.0000    0.92448   0.60232   0.26451   Biso      1.000     C          -0.194406           
         C62       1.0000    0.24910   0.61190   0.47893   Biso      1.000     C          -0.196413           
         C63       1.0000    0.28289   0.51975   0.97140   Biso      1.000     C          0.619263  
         C64       1.0000    0.10449   0.61361   0.31553   Biso      1.000     C          0.57013   
         C65       1.0000    0.26940   0.62420   0.54080   Biso      1.000     C          -0.077152           
         C66       1.0000    0.39380   0.57440   0.52842   Biso      1.000     C          -0.083192           
         C67       1.0000    0.36310   0.61628   0.63446   Biso      1.000     C          0.62223   
         C68       1.0000    0.37260   0.55930   0.46700   Biso      1.000     C          -0.2214   
         C69       1.0000    0.85473   0.72302   0.28493   Biso      1.000     C          -0.006055           
         C70       1.0000    0.84736   0.60940   0.23686   Biso      1.000     C          0.010059  
         C71       1.0000    0.79830   0.54826   0.20107   Biso      1.000     C          0.607568  
         C72       1.0000    0.81409   0.67022   0.24632   Biso      1.000     C          -0.13557  
         C73       1.0000    0.81710   0.78894   0.29637   Biso      1.000     C          0.628957  
         C74       1.0000    0.37167   0.48408   0.12937   Biso      1.000     C          0.001376  
         C75       1.0000    0.45031   0.46336   0.15742   Biso      1.000     C          0.641635  
         C76       1.0000    0.34219   0.60604   0.56680   Biso      1.000     C          -0.047419           
         C77       1.0000    0.16908   0.55870   0.24217   Biso      1.000     C          0.574502  
         C78       1.0000    0.22688   0.52303   0.08080   Biso      1.000     C          -0.22027  
         C79       1.0000    0.96619   0.65470   0.30257   Biso      1.000     C          0.264178  
         C80       1.0000    0.89551   0.88639   0.81553   Biso      1.000     C          0.570148  
         C81       1.0000    0.69400   0.00414   0.66933   Biso      1.000     C          -0.226012           
         C82       1.0000    0.70881   0.98935   0.54093   Biso      1.000     C          0.003966  
         C83       1.0000    0.76479   0.98123   0.64494   Biso      1.000     C          0.2767    
         C84       1.0000    0.77808   0.92859   0.83878   Biso      1.000     C          0.568588  
         C85       1.0000    0.63466   0.00683   0.56561   Biso      1.000     C          -0.141889           
         C86       1.0000    0.06906   0.78453   0.81441   Biso      1.000     C          -0.220197           
         C87       1.0000    0.70020   0.92218   0.94154   Biso      1.000     C          0.287222  
         C88       1.0000    0.07552   0.89768   0.76451   Biso      1.000     C          -0.19443  
         C89       1.0000    0.75090   0.88810   0.97893   Biso      1.000     C          -0.196391           
         C90       1.0000    0.71711   0.98025   0.47140   Biso      1.000     C          0.619272  
         C91       1.0000    0.73060   0.87580   0.04080   Biso      1.000     C          -0.077144           
         C92       1.0000    0.65781   0.89396   0.06680   Biso      1.000     C          -0.047414           
         C93       1.0000    0.60620   0.92560   0.02842   Biso      1.000     C          -0.083168           
         C94       1.0000    0.63690   0.88372   0.13446   Biso      1.000     C          0.622251  
         C95       1.0000    0.62740   0.94070   0.96700   Biso      1.000     C          -0.221383           
         C96       1.0000    0.14527   0.77698   0.78493   Biso      1.000     C          -0.006056           
         C97       1.0000    0.15264   0.89060   0.73686   Biso      1.000     C          0.010057  
         C98       1.0000    0.20170   0.95174   0.70107   Biso      1.000     C          0.607556  
         C99       1.0000    0.18591   0.82978   0.74632   Biso      1.000     C          -0.135557           
         C100      1.0000    0.18290   0.71106   0.79637   Biso      1.000     C          0.628947  
         C101      1.0000    0.62833   0.01592   0.62937   Biso      1.000     C          0.001405  
         C102      1.0000    0.54969   0.03664   0.65742   Biso      1.000     C          0.641635  
         C103      1.0000    0.63466   0.50683   0.93439   Biso      1.000     C          -0.141889           
         C104      1.0000    0.06906   0.28453   0.68559   Biso      1.000     C          -0.220192           
         Cu1       1.0000    0.63877   0.97809   0.35095   Biso      1.000     Cu          1.033098  
         Cu2       1.0000    0.81268   0.41464   0.12590   Biso      1.000     Cu          0.928707  
         Cu3       1.0000    0.68744   0.37060   0.23843   Biso      1.000     Cu          0.914016  
         Cu4       1.0000    0.51047   0.40416   0.27206   Biso      1.000     Cu          0.777072  
         Cu5       1.0000    0.63877   0.47809   0.14905   Biso      1.000     Cu          1.033116  
         Cu6       1.0000    0.18732   0.08536   0.62590   Biso      1.000     Cu          0.928723  
         Cu7       1.0000    0.48953   0.09584   0.77206   Biso      1.000     Cu          0.777062  
         Cu8       1.0000    0.36123   0.02191   0.64905   Biso      1.000     Cu          1.033097  
         Cu9       1.0000    0.18732   0.58536   0.87410   Biso      1.000     Cu          0.928677  
         Cu10      1.0000    0.31256   0.12940   0.73843   Biso      1.000     Cu          0.914098  
         Cu11      1.0000    0.48953   0.59584   0.72795   Biso      1.000     Cu          0.777123  
         Cu12      1.0000    0.36123   0.52191   0.85095   Biso      1.000     Cu          1.033102  
         Cu13      1.0000    0.81268   0.91464   0.37410   Biso      1.000     Cu          0.928725  
         Cu14      1.0000    0.68744   0.87060   0.26157   Biso      1.000     Cu          0.914051  
         Cu15      1.0000    0.51047   0.90416   0.22795   Biso      1.000     Cu          0.777239  
         Cu16      1.0000    0.31256   0.62940   0.76157   Biso      1.000     Cu          0.914     
         H1        1.0000    0.20120   0.12640   0.03770   Biso      1.000     H          0.120484  
         H2        1.0000    0.82270   0.46560   0.93590   Biso      1.000     H          0.134104  
         H3        1.0000    0.95160   0.33220   0.62870   Biso      1.000     H          0.312313  
         H4        1.0000    0.87740   0.46320   0.83760   Biso      1.000     H          0.307795  
         H5        1.0000    0.40740   0.03640   0.05760   Biso      1.000     H          0.122824  
         H6        1.0000    0.44390   0.06310   0.95570   Biso      1.000     H          0.114831  
         H7        1.0000    0.23340   0.14530   0.93410   Biso      1.000     H          0.124342  
         H8        1.0000    0.94780   0.06190   0.24290   Biso      1.000     H          0.13374   
         H9        1.0000    0.40740   0.53640   0.44240   Biso      1.000     H          0.122802  
         H10       1.0000    0.95770   0.25020   0.15860   Biso      1.000     H          0.138067  
         H11       1.0000    0.41020   0.98770   0.46050   Biso      1.000     H          0.140609  
         H12       1.0000    0.31000   0.98830   0.28790   Biso      1.000     H          0.13981   
         H13       1.0000    0.17730   0.03440   0.43590   Biso      1.000     H          0.134126  
         H14       1.0000    0.04840   0.16780   0.12870   Biso      1.000     H          0.312331  
         H15       1.0000    0.12260   0.03680   0.33760   Biso      1.000     H          0.307805  
         H16       1.0000    0.69000   0.51170   0.78790   Biso      1.000     H          0.139804  
         H17       1.0000    0.76390   0.67570   0.22650   Biso      1.000     H          0.135121  
         H18       1.0000    0.31950   0.03500   0.13710   Biso      1.000     H          0.303705  
         H19       1.0000    0.58980   0.51230   0.96050   Biso      1.000     H          0.14059   
         H20       1.0000    0.76390   0.17570   0.27350   Biso      1.000     H          0.135121  
         H21       1.0000    0.68050   0.46500   0.63710   Biso      1.000     H          0.303699  
         H22       1.0000    0.44390   0.56310   0.54430   Biso      1.000     H          0.114815  
         H23       1.0000    0.23340   0.64530   0.56590   Biso      1.000     H          0.124301  
         H24       1.0000    0.20120   0.62640   0.46230   Biso      1.000     H          0.120457  
         H25       1.0000    0.94780   0.56190   0.25710   Biso      1.000     H          0.133748  
         H26       1.0000    0.31950   0.53500   0.36290   Biso      1.000     H          0.303686  
         H27       1.0000    0.95770   0.75020   0.34140   Biso      1.000     H          0.138053  
         H28       1.0000    0.41020   0.48770   0.03950   Biso      1.000     H          0.140592  
         H29       1.0000    0.31000   0.48830   0.21210   Biso      1.000     H          0.139795  
         H30       1.0000    0.17730   0.53440   0.06410   Biso      1.000     H          0.134104  
         H31       1.0000    0.04840   0.66780   0.37130   Biso      1.000     H          0.312309  
         H32       1.0000    0.12260   0.53680   0.16240   Biso      1.000     H          0.307788  
         H33       1.0000    0.04230   0.24980   0.65860   Biso      1.000     H          0.13805   
         H34       1.0000    0.59260   0.96360   0.94240   Biso      1.000     H          0.122831  
         H35       1.0000    0.55610   0.93690   0.04430   Biso      1.000     H          0.114836  
         H36       1.0000    0.76660   0.85470   0.06590   Biso      1.000     H          0.124327  
         H37       1.0000    0.23610   0.82430   0.72650   Biso      1.000     H          0.135115  
         H38       1.0000    0.76660   0.35470   0.43410   Biso      1.000     H          0.124306  
         H39       1.0000    0.05220   0.43810   0.74290   Biso      1.000     H          0.133742  
         H40       1.0000    0.79880   0.37360   0.53770   Biso      1.000     H          0.120468  
         H41       1.0000    0.79880   0.87360   0.96230   Biso      1.000     H          0.120485  
         H42       1.0000    0.55610   0.43690   0.45570   Biso      1.000     H          0.114821  
         H43       1.0000    0.59260   0.46360   0.55760   Biso      1.000     H          0.12282   
         H44       1.0000    0.87740   0.96320   0.66240   Biso      1.000     H          0.307804  
         H45       1.0000    0.23610   0.32430   0.77350   Biso      1.000     H          0.135116  
         H46       1.0000    0.82270   0.96560   0.56410   Biso      1.000     H          0.134121  
         H47       1.0000    0.69000   0.01170   0.71210   Biso      1.000     H          0.139811  
         H48       1.0000    0.58980   0.01230   0.53950   Biso      1.000     H          0.140603  
         H49       1.0000    0.04230   0.74980   0.84140   Biso      1.000     H          0.138058  
         H50       1.0000    0.68050   0.96500   0.86290   Biso      1.000     H          0.303705  
         H51       1.0000    0.05220   0.93810   0.75710   Biso      1.000     H          0.133729  
         H52       1.0000    0.95160   0.83220   0.87130   Biso      1.000     H          0.312325  
         N1        1.0000    0.71614   0.94116   0.87886   Biso      1.000     N          -0.412265           
         N2        1.0000    0.89667   0.90915   0.75648   Biso      1.000     N          -0.552399           
         N3        1.0000    0.82995   0.96181   0.68169   Biso      1.000     N          -0.415817           
         N4        1.0000    0.95831   0.85202   0.83524   Biso      1.000     N          -0.425367           
         N5        1.0000    0.22968   0.54607   0.28105   Biso      1.000     N          -0.551704           
         N6        1.0000    0.28386   0.55884   0.37886   Biso      1.000     N          -0.412265           
         N7        1.0000    0.10333   0.59085   0.25648   Biso      1.000     N          -0.552427           
         N8        1.0000    0.17005   0.53819   0.18169   Biso      1.000     N          -0.415816           
         N9        1.0000    0.04169   0.64798   0.33524   Biso      1.000     N          -0.425366           
         N10       1.0000    0.83685   0.89240   0.85885   Biso      1.000     N          -0.544817           
         N11       1.0000    0.16315   0.60760   0.35885   Biso      1.000     N          -0.544817           
         N12       1.0000    0.77032   0.95393   0.78105   Biso      1.000     N          -0.551702           
         N13       1.0000    0.10333   0.09085   0.24352   Biso      1.000     N          -0.552409           
         N14       1.0000    0.95831   0.35202   0.66476   Biso      1.000     N          -0.425364           
         N15       1.0000    0.82995   0.46181   0.81831   Biso      1.000     N          -0.415815           
         N16       1.0000    0.89667   0.40915   0.74352   Biso      1.000     N          -0.552412           
         N17       1.0000    0.83685   0.39240   0.64115   Biso      1.000     N          -0.544822           
         N18       1.0000    0.77032   0.45393   0.71895   Biso      1.000     N          -0.5517   
         N19       1.0000    0.28386   0.05884   0.12114   Biso      1.000     N          -0.412268           
         N20       1.0000    0.04169   0.14798   0.16476   Biso      1.000     N          -0.425369           
         N21       1.0000    0.17005   0.03819   0.31831   Biso      1.000     N          -0.415818           
         N22       1.0000    0.16315   0.10760   0.14115   Biso      1.000     N          -0.544812           
         N23       1.0000    0.22968   0.04607   0.21895   Biso      1.000     N          -0.551704           
         N24       1.0000    0.71614   0.44116   0.62114   Biso      1.000     N          -0.412262           
         O1        1.0000    0.30446   0.11492   0.64851   Biso      1.000     O          -0.726095           
         O2        1.0000    0.15213   0.67137   0.83915   Biso      1.000     O          -0.560426           
         O3        1.0000    0.24247   0.70211   0.76069   Biso      1.000     O          -0.50345  
         O4        1.0000    0.17571   0.00979   0.70250   Biso      1.000     O          -0.616076           
         O5        1.0000    0.78355   0.96108   0.45185   Biso      1.000     O          -0.578518           
         O6        1.0000    0.56255   0.88946   0.14938   Biso      1.000     O          -0.562033           
         O7        1.0000    0.69340   0.87033   0.17115   Biso      1.000     O          -0.496119           
         O8        1.0000    0.38065   0.05049   0.73687   Biso      1.000     O          -0.72586  
         O9        1.0000    0.26918   0.94135   0.67466   Biso      1.000     O          -0.5424   
         O10       1.0000    0.48227   0.02038   0.62905   Biso      1.000     O          -0.521927           
         O11       1.0000    0.43745   0.61054   0.64938   Biso      1.000     O          -0.562035           
         O12       1.0000    0.34396   0.50677   0.93862   Biso      1.000     O          -0.492068           
         O13       1.0000    0.21645   0.53892   0.95185   Biso      1.000     O          -0.578539           
         O14       1.0000    0.30660   0.62967   0.67115   Biso      1.000     O          -0.496149           
         O15       1.0000    0.65604   0.99323   0.43862   Biso      1.000     O          -0.492051           
         O16       1.0000    0.73082   0.55865   0.17466   Biso      1.000     O          -0.542369           
         O17       1.0000    0.82429   0.49021   0.20250   Biso      1.000     O          -0.616058           
         O18       1.0000    0.75753   0.79789   0.26069   Biso      1.000     O          -0.503412           
         O19       1.0000    0.84787   0.82863   0.33915   Biso      1.000     O          -0.560399           
         O20       1.0000    0.69554   0.38508   0.14851   Biso      1.000     O          -0.726093           
         O21       1.0000    0.61935   0.44951   0.23687   Biso      1.000     O          -0.725873           
         O22       1.0000    0.56043   0.06996   0.70766   Biso      1.000     O          -0.559817           
         O23       1.0000    0.56043   0.56996   0.79234   Biso      1.000     O          -0.559879           
         O24       1.0000    0.24247   0.20211   0.73931   Biso      1.000     O          -0.503396           
         O25       1.0000    0.38065   0.55049   0.76313   Biso      1.000     O          -0.725925           
         O26       1.0000    0.51773   0.47962   0.12905   Biso      1.000     O          -0.521898           
         O27       1.0000    0.34396   0.00677   0.56138   Biso      1.000     O          -0.492092           
         O28       1.0000    0.21645   0.03892   0.54815   Biso      1.000     O          -0.578538           
         O29       1.0000    0.30660   0.12967   0.82885   Biso      1.000     O          -0.496105           
         O30       1.0000    0.43745   0.11054   0.85062   Biso      1.000     O          -0.56203  
         O31       1.0000    0.73082   0.05865   0.32534   Biso      1.000     O          -0.542353           
         O32       1.0000    0.82429   0.99021   0.29750   Biso      1.000     O          -0.616047           
         O33       1.0000    0.75753   0.29789   0.23931   Biso      1.000     O          -0.503426           
         O34       1.0000    0.84787   0.32863   0.16085   Biso      1.000     O          -0.560411           
         O35       1.0000    0.69554   0.88508   0.35149   Biso      1.000     O          -0.726051           
         O36       1.0000    0.61935   0.94951   0.26313   Biso      1.000     O          -0.725902           
         O37       1.0000    0.51773   0.97962   0.37095   Biso      1.000     O          -0.521889           
         O38       1.0000    0.43957   0.93004   0.29234   Biso      1.000     O          -0.559872           
         O39       1.0000    0.65604   0.49323   0.06138   Biso      1.000     O          -0.492063           
         O40       1.0000    0.78355   0.46108   0.04815   Biso      1.000     O          -0.578529           
         O41       1.0000    0.69340   0.37033   0.32885   Biso      1.000     O          -0.496127           
         O42       1.0000    0.56255   0.38946   0.35062   Biso      1.000     O          -0.562021           
         O43       1.0000    0.26918   0.44135   0.82534   Biso      1.000     O          -0.542375           
         O44       1.0000    0.17571   0.50979   0.79750   Biso      1.000     O          -0.616058           
         O45       1.0000    0.15213   0.17137   0.66085   Biso      1.000     O          -0.560416           
         O46       1.0000    0.30446   0.61492   0.85149   Biso      1.000     O          -0.726099           
         O47       1.0000    0.48227   0.52038   0.87095   Biso      1.000     O          -0.521906           
         O48       1.0000    0.43957   0.43004   0.20766   Biso      1.000     O          -0.559809 