
##########################################################################
#               Crystallographic Information Format file
#               Produced by PyCifRW module
#
#  This is a CIF file.  CIF has been adopted by the International
#  Union of Crystallography as the standard for data archiving and
#  transmission.
#
#  For information on this file format, follow the CIF links at
#  http://www.iucr.org
##########################################################################

data_image0

_cell_length_a                          9.8785
_cell_length_b                          11.1986
_cell_length_c                          14.7456
_cell_angle_alpha                       93.919
_cell_angle_beta                        97.409
_cell_angle_gamma                       104.517
_symmetry_space_group_name_H-M          'P 1'
_symmetry_int_tables_number             1
loop_
  _symmetry_equiv_pos_as_xyz
         'x, y, z' 
loop_
  _atom_site_label
  _atom_site_occupancy
  _atom_site_fract_x
  _atom_site_fract_y
  _atom_site_fract_z
  _atom_site_thermal_displace_type
  _atom_site_B_iso_or_equiv
  _atom_site_type_symbol
  _atom_site_charge
         C1        1.0000    0.15130   0.89850   0.93840   Biso      1.000     C          -0.19610999999999998          
         C2        1.0000    0.72370   0.79970   0.58430   Biso      1.000     C          -0.197971           
         C3        1.0000    0.81470   0.71250   0.60930   Biso      1.000     C          -0.12171099999999999          
         C4        1.0000    0.83410   0.63270   0.52840   Biso      1.000     C          0.645413  
         C5        1.0000    0.61900   0.40020   0.86980   Biso      1.000     C          0.637796  
         C6        1.0000    0.73400   0.33500   0.86280   Biso      1.000     C          -0.12153800000000001          
         C7        1.0000    0.72560   0.26870   0.76810   Biso      1.000     C          -0.20818699999999998          
         C8        1.0000    0.88030   0.42560   0.89140   Biso      1.000     C          -0.18742  
         C9        1.0000    0.99480   0.35690   0.89320   Biso      1.000     C          -0.197713           
         C10       1.0000    0.74990   0.62570   0.67860   Biso      1.000     C          -0.191939           
         C11       1.0000    0.84430   0.20350   0.76360   Biso      1.000     C          -0.199073           
         C12       1.0000    0.05510   0.37720   0.73360   Biso      1.000     C          0.657554  
         C13       1.0000    0.35560   0.24500   0.98070   Biso      1.000     C          0.6681520000000001  
         C14       1.0000    0.31580   0.10590   0.95370   Biso      1.000     C          -0.100861           
         C15       1.0000    0.37360   0.07550   0.86910   Biso      1.000     C          -0.192588           
         C16       1.0000    0.18210   0.03810   0.96280   Biso      1.000     C          -0.182828           
         C17       1.0000    0.27330   0.30120   0.23730   Biso      1.000     C          -0.191029           
         C18       1.0000    0.34280   0.93720   0.84310   Biso      1.000     C          -0.195676           
         C19       1.0000    0.19910   0.86600   0.85550   Biso      1.000     C          -0.10463800000000001          
         C20       1.0000    0.99210   0.28730   0.79880   Biso      1.000     C          -0.125113           
         C21       1.0000    0.72670   0.69880   0.76270   Biso      1.000     C          -0.191028           
         C22       1.0000    0.69900   0.87240   0.66890   Biso      1.000     C          -0.201277           
         C23       1.0000    0.63360   0.78550   0.73690   Biso      1.000     C          -0.129584           
         C24       1.0000    0.18530   0.28750   0.39070   Biso      1.000     C          -0.12171099999999999          
         C25       1.0000    0.16590   0.36730   0.47160   Biso      1.000     C          0.645413  
         C26       1.0000    0.38100   0.59980   0.13020   Biso      1.000     C          0.637796  
         C27       1.0000    0.26600   0.66500   0.13720   Biso      1.000     C          -0.12153800000000001          
         C28       1.0000    0.27440   0.73130   0.23190   Biso      1.000     C          -0.20818899999999999          
         C29       1.0000    0.11970   0.57440   0.10860   Biso      1.000     C          -0.187421           
         C30       1.0000    0.00520   0.64310   0.10680   Biso      1.000     C          -0.197712           
         C31       1.0000    0.15570   0.79650   0.23640   Biso      1.000     C          -0.199073           
         C32       1.0000    0.00790   0.71270   0.20120   Biso      1.000     C          -0.125113           
         C33       1.0000    0.94490   0.62280   0.26640   Biso      1.000     C          0.657554  
         C34       1.0000    0.64440   0.75500   0.01930   Biso      1.000     C          0.6681520000000001  
         C35       1.0000    0.68420   0.89410   0.04630   Biso      1.000     C          -0.100861           
         C36       1.0000    0.62640   0.92450   0.13090   Biso      1.000     C          -0.192588           
         C37       1.0000    0.81790   0.96190   0.03720   Biso      1.000     C          -0.182828           
         C38       1.0000    0.84870   0.10150   0.06160   Biso      1.000     C          -0.19611099999999998          
         C39       1.0000    0.65720   0.06280   0.15690   Biso      1.000     C          -0.195677           
         C40       1.0000    0.80090   0.13400   0.14450   Biso      1.000     C          -0.10463800000000001          
         C41       1.0000    0.81870   0.27060   0.17110   Biso      1.000     C          0.674672  
         C42       1.0000    0.48050   0.71650   0.70110   Biso      1.000     C          0.6636880000000001  
         C43       1.0000    0.18130   0.72940   0.82890   Biso      1.000     C          0.674673  
         C44       1.0000    0.27630   0.20030   0.41570   Biso      1.000     C          -0.197971           
         C45       1.0000    0.25010   0.37430   0.32140   Biso      1.000     C          -0.191938           
         C46       1.0000    0.51950   0.28350   0.29890   Biso      1.000     C          0.6636880000000001  
         C47       1.0000    0.36640   0.21450   0.26310   Biso      1.000     C          -0.129584           
         C48       1.0000    0.30100   0.12760   0.33110   Biso      1.000     C          -0.201277           
         H1        1.0000    0.15890   0.82840   0.29970   Biso      1.000     H          0.10626   
         H2        1.0000    0.66030   0.57100   0.64900   Biso      1.000     H          0.11379700000000001           
         H3        1.0000    0.81270   0.57470   0.69730   Biso      1.000     H          0.10818   
         H4        1.0000    0.63320   0.75200   0.55050   Biso      1.000     H          0.110213  
         H5        1.0000    0.76950   0.85730   0.54440   Biso      1.000     H          0.105395  
         H6        1.0000    0.90820   0.76250   0.63890   Biso      1.000     H          0.08984   
         H7        1.0000    0.72350   0.27210   0.90640   Biso      1.000     H          0.09145299999999999           
         H8        1.0000    0.73160   0.32830   0.72310   Biso      1.000     H          0.11060299999999999           
         H9        1.0000    0.63480   0.20780   0.75230   Biso      1.000     H          0.105494  
         H10       1.0000    0.89540   0.48760   0.84830   Biso      1.000     H          0.11105599999999999           
         H11       1.0000    0.88520   0.46780   0.95190   Biso      1.000     H          0.106924  
         H12       1.0000    0.98200   0.29800   0.93870   Biso      1.000     H          0.10976099999999998           
         H13       1.0000    0.08650   0.41570   0.91150   Biso      1.000     H          0.084345  
         H14       1.0000    0.84110   0.17160   0.70030   Biso      1.000     H          0.10626   
         H15       1.0000    0.68210   0.64180   0.80340   Biso      1.000     H          0.104539  
         H16       1.0000    0.05470   0.23250   0.80890   Biso      1.000     H          0.09851499999999999           
         H17       1.0000    0.37530   0.07750   0.00150   Biso      1.000     H          0.07458   
         H18       1.0000    0.47520   0.11130   0.87880   Biso      1.000     H          0.10655799999999999           
         H19       1.0000    0.33290   0.11280   0.81850   Biso      1.000     H          0.104799  
         H20       1.0000    0.11380   0.06860   0.92410   Biso      1.000     H          0.091125  
         H21       1.0000    0.16770   0.05320   0.02600   Biso      1.000     H          0.10028300000000001           
         H22       1.0000    0.19650   0.86320   0.98830   Biso      1.000     H          0.09450900000000001           
         H23       1.0000    0.05010   0.86220   0.93240   Biso      1.000     H          0.099651  
         H24       1.0000    0.35400   0.92290   0.77920   Biso      1.000     H          0.10614200000000001           
         H25       1.0000    0.41210   0.90570   0.88000   Biso      1.000     H          0.095547  
         H26       1.0000    0.13600   0.88970   0.80720   Biso      1.000     H          0.07927000000000001           
         H27       1.0000    0.82700   0.13340   0.79960   Biso      1.000     H          0.099192  
         H28       1.0000    0.94530   0.76750   0.19110   Biso      1.000     H          0.09851499999999999           
         H29       1.0000    0.81740   0.74730   0.79550   Biso      1.000     H          0.10544200000000001           
         H30       1.0000    0.63630   0.92340   0.65010   Biso      1.000     H          0.114454  
         H31       1.0000    0.17300   0.86660   0.20040   Biso      1.000     H          0.09919299999999999           
         H32       1.0000    0.91350   0.58430   0.08850   Biso      1.000     H          0.084345  
         H33       1.0000    0.01800   0.70200   0.06130   Biso      1.000     H          0.10976099999999998           
         H34       1.0000    0.11480   0.53220   0.04810   Biso      1.000     H          0.106924  
         H35       1.0000    0.10460   0.51240   0.15170   Biso      1.000     H          0.11105599999999999           
         H36       1.0000    0.36520   0.79220   0.24770   Biso      1.000     H          0.105495  
         H37       1.0000    0.26840   0.67170   0.27690   Biso      1.000     H          0.11060299999999999           
         H38       1.0000    0.62470   0.92250   0.99850   Biso      1.000     H          0.07458   
         H39       1.0000    0.09180   0.23750   0.36110   Biso      1.000     H          0.08984   
         H40       1.0000    0.23050   0.14270   0.45560   Biso      1.000     H          0.105397  
         H41       1.0000    0.36680   0.24800   0.44950   Biso      1.000     H          0.110213  
         H42       1.0000    0.18730   0.42530   0.30270   Biso      1.000     H          0.10818   
         H43       1.0000    0.33970   0.42900   0.35100   Biso      1.000     H          0.11379700000000001           
         H44       1.0000    0.78830   0.92700   0.69900   Biso      1.000     H          0.098213  
         H45       1.0000    0.31790   0.35820   0.19660   Biso      1.000     H          0.104539  
         H46       1.0000    0.21170   0.07300   0.30100   Biso      1.000     H          0.098213  
         H47       1.0000    0.36370   0.07660   0.34990   Biso      1.000     H          0.114454  
         H48       1.0000    0.36640   0.16250   0.20690   Biso      1.000     H          0.103898  
         H49       1.0000    0.52480   0.88870   0.12120   Biso      1.000     H          0.10655799999999999           
         H50       1.0000    0.66710   0.88720   0.18150   Biso      1.000     H          0.104799  
         H51       1.0000    0.88620   0.93140   0.07590   Biso      1.000     H          0.091125  
         H52       1.0000    0.83230   0.94680   0.97400   Biso      1.000     H          0.10028300000000001           
         H53       1.0000    0.80350   0.13680   0.01170   Biso      1.000     H          0.09450900000000001           
         H54       1.0000    0.94990   0.13780   0.06760   Biso      1.000     H          0.099652  
         H55       1.0000    0.64600   0.07710   0.22080   Biso      1.000     H          0.10614200000000001           
         H56       1.0000    0.58790   0.09430   0.12000   Biso      1.000     H          0.095546  
         H57       1.0000    0.86400   0.11030   0.19280   Biso      1.000     H          0.07927100000000001           
         H58       1.0000    0.63360   0.83750   0.79310   Biso      1.000     H          0.103898  
         H59       1.0000    0.18260   0.25270   0.20450   Biso      1.000     H          0.10544200000000001           
         H60       1.0000    0.27650   0.72790   0.09360   Biso      1.000     H          0.09145199999999999           
         La1       1.0000    0.38197   0.52480   0.88245   Biso      1.000     La          1.9240680000000001  
         La2       1.0000    0.82418   0.42153   0.38526   Biso      1.000     La          1.910391  
         La3       1.0000    0.61803   0.47520   0.11755   Biso      1.000     La          1.9240669999999997  
         La4       1.0000    0.17582   0.57847   0.61474   Biso      1.000     La          1.910391  
         O1        1.0000    0.58920   0.24850   0.36230   Biso      1.000     O          -0.624848           
         O2        1.0000    0.57890   0.37660   0.26100   Biso      1.000     O          -0.681435           
         O3        1.0000    0.46940   0.59730   0.19820   Biso      1.000     O          -0.572457           
         O4        1.0000    0.38560   0.54410   0.05250   Biso      1.000     O          -0.722869           
         O5        1.0000    0.01540   0.60220   0.33490   Biso      1.000     O          -0.5910979999999999           
         O6        1.0000    0.81320   0.56950   0.24860   Biso      1.000     O          -0.70235  
         O7        1.0000    0.69150   0.68740   0.07330   Biso      1.000     O          -0.640599           
         O8        1.0000    0.56300   0.71560   0.94540   Biso      1.000     O          -0.6487609999999999           
         O9        1.0000    0.87300   0.31070   0.25240   Biso      1.000     O          -0.664007           
         O10       1.0000    0.77530   0.33570   0.11360   Biso      1.000     O          -0.627506           
         O11       1.0000    0.74290   0.60070   0.45690   Biso      1.000     O          -0.578761           
         O12       1.0000    0.94110   0.58770   0.53510   Biso      1.000     O          -0.711828           
         O13       1.0000    0.41080   0.75150   0.63770   Biso      1.000     O          -0.624849           
         O14       1.0000    0.42110   0.62340   0.73900   Biso      1.000     O          -0.681435           
         O15       1.0000    0.53060   0.40270   0.80180   Biso      1.000     O          -0.572457           
         O16       1.0000    0.61440   0.45590   0.94750   Biso      1.000     O          -0.722869           
         O17       1.0000    0.98460   0.39780   0.66510   Biso      1.000     O          -0.5910979999999999           
         O18       1.0000    0.18680   0.43050   0.75140   Biso      1.000     O          -0.70235  
         O19       1.0000    0.30850   0.31260   0.92670   Biso      1.000     O          -0.640599           
         O20       1.0000    0.43700   0.28440   0.05460   Biso      1.000     O          -0.6487609999999999           
         O21       1.0000    0.12700   0.68930   0.74760   Biso      1.000     O          -0.664006           
         O22       1.0000    0.22470   0.66430   0.88640   Biso      1.000     O          -0.6275069999999999           
         O23       1.0000    0.05890   0.41230   0.46490   Biso      1.000     O          -0.7118270000000001           
         O24       1.0000    0.25710   0.39930   0.54310   Biso      1.000     O          -0.578761 