
##########################################################################
#               Crystallographic Information Format file
#               Produced by PyCifRW module
#
#  This is a CIF file.  CIF has been adopted by the International
#  Union of Crystallography as the standard for data archiving and
#  transmission.
#
#  For information on this file format, follow the CIF links at
#  http://www.iucr.org
##########################################################################

data_image0

_cell_length_a                          18.7666
_cell_length_b                          18.7666
_cell_length_c                          18.7666
_cell_angle_alpha                       60
_cell_angle_beta                        60
_cell_angle_gamma                       60
_symmetry_space_group_name_H-M          'P 1'
_symmetry_int_tables_number             1
loop_
  _symmetry_equiv_pos_as_xyz
         'x, y, z' 
loop_
  _atom_site_label
  _atom_site_occupancy
  _atom_site_fract_x
  _atom_site_fract_y
  _atom_site_fract_z
  _atom_site_thermal_displace_type
  _atom_site_B_iso_or_equiv
  _atom_site_type_symbol
  _atom_site_charge
         C1        1.0000    0.11430   0.24366   0.11430   Biso      1.000     C          -0.032241           
         C2        1.0000    0.06980   0.52412   0.06980   Biso      1.000     C          0.631263  
         C3        1.0000    0.52774   0.11430   0.24366   Biso      1.000     C          -0.032254           
         C4        1.0000    0.52412   0.06980   0.33628   Biso      1.000     C          0.631211  
         C5        1.0000    0.06980   0.33628   0.06980   Biso      1.000     C          0.631213  
         C6        1.0000    0.11430   0.11430   0.24366   Biso      1.000     C          -0.032241           
         C7        1.0000    0.06980   0.06980   0.33628   Biso      1.000     C          0.631213  
         C8        1.0000    0.24366   0.52774   0.11430   Biso      1.000     C          -0.032254           
         C9        1.0000    0.33628   0.52412   0.06980   Biso      1.000     C          0.631211  
         C10       1.0000    0.11430   0.11430   0.52774   Biso      1.000     C          -0.032327           
         C11       1.0000    0.06980   0.06980   0.52412   Biso      1.000     C          0.631263  
         C12       1.0000    0.52774   0.24366   0.11430   Biso      1.000     C          -0.032254           
         C13       1.0000    0.52412   0.33628   0.06980   Biso      1.000     C          0.631211  
         C14       1.0000    0.52774   0.11430   0.11430   Biso      1.000     C          -0.032326           
         C15       1.0000    0.52412   0.06980   0.06980   Biso      1.000     C          0.631263  
         C16       1.0000    0.11430   0.52774   0.24366   Biso      1.000     C          -0.032254           
         C17       1.0000    0.06980   0.52412   0.33628   Biso      1.000     C          0.631211  
         C18       1.0000    0.24366   0.11430   0.11430   Biso      1.000     C          -0.032241           
         C19       1.0000    0.11430   0.24366   0.52774   Biso      1.000     C          -0.032255           
         C20       1.0000    0.06980   0.33628   0.52412   Biso      1.000     C          0.631211  
         C21       1.0000    0.88570   0.75634   0.47226   Biso      1.000     C          -0.032255           
         C22       1.0000    0.93020   0.66372   0.47588   Biso      1.000     C          0.631211  
         C23       1.0000    0.47226   0.88570   0.88570   Biso      1.000     C          -0.032326           
         C24       1.0000    0.47588   0.93020   0.93020   Biso      1.000     C          0.631263  
         C25       1.0000    0.11430   0.52774   0.11430   Biso      1.000     C          -0.032326           
         C26       1.0000    0.88570   0.47226   0.75634   Biso      1.000     C          -0.032254           
         C27       1.0000    0.33628   0.06980   0.52412   Biso      1.000     C          0.631211  
         C28       1.0000    0.79970   0.92878   0.47182   Biso      1.000     C          -0.099528           
         C29       1.0000    0.20030   0.20030   0.52818   Biso      1.000     C          -0.099592           
         C30       1.0000    0.07122   0.52818   0.20030   Biso      1.000     C          -0.099529           
         C31       1.0000    0.52818   0.07122   0.20030   Biso      1.000     C          -0.09953  
         C32       1.0000    0.20030   0.20030   0.07122   Biso      1.000     C          -0.099591           
         C33       1.0000    0.07122   0.20030   0.20030   Biso      1.000     C          -0.099591           
         C34       1.0000    0.20030   0.52818   0.07122   Biso      1.000     C          -0.099529           
         C35       1.0000    0.20030   0.07122   0.52818   Biso      1.000     C          -0.099529           
         C36       1.0000    0.52818   0.20030   0.20030   Biso      1.000     C          -0.099593           
         C37       1.0000    0.52818   0.20030   0.07122   Biso      1.000     C          -0.099529           
         C38       1.0000    0.20030   0.52818   0.20030   Biso      1.000     C          -0.099593           
         C39       1.0000    0.20030   0.07122   0.20030   Biso      1.000     C          -0.099591           
         C40       1.0000    0.07122   0.20030   0.52818   Biso      1.000     C          -0.099529           
         C41       1.0000    0.79970   0.79970   0.47182   Biso      1.000     C          -0.099592           
         C42       1.0000    0.47182   0.92878   0.79970   Biso      1.000     C          -0.099529           
         C43       1.0000    0.92878   0.47182   0.79970   Biso      1.000     C          -0.099529           
         C44       1.0000    0.79970   0.79970   0.92878   Biso      1.000     C          -0.09959  
         C45       1.0000    0.79970   0.92878   0.79970   Biso      1.000     C          -0.09959  
         C46       1.0000    0.47182   0.79970   0.92878   Biso      1.000     C          -0.099529           
         C47       1.0000    0.92878   0.79970   0.47182   Biso      1.000     C          -0.099529           
         C48       1.0000    0.79970   0.47182   0.79970   Biso      1.000     C          -0.099593           
         C49       1.0000    0.79970   0.47182   0.92878   Biso      1.000     C          -0.099529           
         C50       1.0000    0.47182   0.79970   0.79970   Biso      1.000     C          -0.099592           
         C51       1.0000    0.92878   0.79970   0.79970   Biso      1.000     C          -0.09959  
         C52       1.0000    0.24366   0.11430   0.52774   Biso      1.000     C          -0.032255           
         C53       1.0000    0.93020   0.47588   0.66372   Biso      1.000     C          0.631211  
         C54       1.0000    0.33628   0.06980   0.06980   Biso      1.000     C          0.631213  
         C55       1.0000    0.66372   0.93020   0.93020   Biso      1.000     C          0.631213  
         C56       1.0000    0.75634   0.88570   0.88570   Biso      1.000     C          -0.032241           
         C57       1.0000    0.66372   0.93020   0.47588   Biso      1.000     C          0.631211  
         C58       1.0000    0.75634   0.88570   0.47226   Biso      1.000     C          -0.032255           
         C59       1.0000    0.93020   0.66372   0.93020   Biso      1.000     C          0.631213  
         C60       1.0000    0.47588   0.93020   0.66372   Biso      1.000     C          0.631211  
         C61       1.0000    0.47226   0.88570   0.75634   Biso      1.000     C          -0.032254           
         C62       1.0000    0.93020   0.47588   0.93020   Biso      1.000     C          0.631263  
         C63       1.0000    0.88570   0.47226   0.88570   Biso      1.000     C          -0.032326           
         C64       1.0000    0.88570   0.75634   0.88570   Biso      1.000     C          -0.032241           
         C65       1.0000    0.75634   0.47226   0.88570   Biso      1.000     C          -0.032254           
         C66       1.0000    0.93020   0.93020   0.47588   Biso      1.000     C          0.631263  
         C67       1.0000    0.88570   0.88570   0.47226   Biso      1.000     C          -0.032327           
         C68       1.0000    0.47588   0.66372   0.93020   Biso      1.000     C          0.631211  
         C69       1.0000    0.47226   0.75634   0.88570   Biso      1.000     C          -0.032254           
         C70       1.0000    0.93020   0.93020   0.66372   Biso      1.000     C          0.631213  
         C71       1.0000    0.66372   0.47588   0.93020   Biso      1.000     C          0.631211  
         C72       1.0000    0.88570   0.88570   0.75634   Biso      1.000     C          -0.032241           
         H1        1.0000    0.77070   0.98750   0.47110   Biso      1.000     H          0.128238  
         H2        1.0000    0.47110   0.98750   0.77070   Biso      1.000     H          0.128238  
         H3        1.0000    0.98750   0.47110   0.77070   Biso      1.000     H          0.128238  
         H4        1.0000    0.77070   0.77070   0.98750   Biso      1.000     H          0.128247  
         H5        1.0000    0.47110   0.77070   0.98750   Biso      1.000     H          0.128238  
         H6        1.0000    0.47110   0.77070   0.77070   Biso      1.000     H          0.128246  
         H7        1.0000    0.77070   0.47110   0.77070   Biso      1.000     H          0.128246  
         H8        1.0000    0.77070   0.47110   0.98750   Biso      1.000     H          0.128238  
         H9        1.0000    0.98750   0.77070   0.77070   Biso      1.000     H          0.128247  
         H10       1.0000    0.77070   0.77070   0.47110   Biso      1.000     H          0.128246  
         H11       1.0000    0.98750   0.77070   0.47110   Biso      1.000     H          0.128238  
         H12       1.0000    0.01250   0.22930   0.52890   Biso      1.000     H          0.128238  
         H13       1.0000    0.77070   0.98750   0.77070   Biso      1.000     H          0.128247  
         H14       1.0000    0.22930   0.52890   0.22930   Biso      1.000     H          0.128246  
         H15       1.0000    0.52890   0.22930   0.01250   Biso      1.000     H          0.128238  
         H16       1.0000    0.52890   0.22930   0.22930   Biso      1.000     H          0.128246  
         H17       1.0000    0.22930   0.01250   0.52890   Biso      1.000     H          0.128238  
         H18       1.0000    0.22930   0.52890   0.01250   Biso      1.000     H          0.128238  
         H19       1.0000    0.01250   0.22930   0.22930   Biso      1.000     H          0.128247  
         H20       1.0000    0.22930   0.22930   0.01250   Biso      1.000     H          0.128247  
         H21       1.0000    0.52890   0.01250   0.22930   Biso      1.000     H          0.128238  
         H22       1.0000    0.01250   0.52890   0.22930   Biso      1.000     H          0.128238  
         H23       1.0000    0.22930   0.22930   0.52890   Biso      1.000     H          0.128246  
         H24       1.0000    0.22930   0.01250   0.22930   Biso      1.000     H          0.128247  
         O1        1.0000    0.99361   0.11275   0.52159   Biso      1.000     O          -0.577786           
         O2        1.0000    0.37205   0.52159   0.11275   Biso      1.000     O          -0.577778           
         O3        1.0000    0.11275   0.52159   0.99361   Biso      1.000     O          -0.577785           
         O4        1.0000    0.52159   0.11275   0.37205   Biso      1.000     O          -0.577778           
         O5        1.0000    0.99361   0.37205   0.11275   Biso      1.000     O          -0.577779           
         O6        1.0000    0.11275   0.37205   0.99361   Biso      1.000     O          -0.577779           
         O7        1.0000    0.37205   0.11275   0.52159   Biso      1.000     O          -0.577778           
         O8        1.0000    0.99361   0.52159   0.11275   Biso      1.000     O          -0.577786           
         O9        1.0000    0.52159   0.99361   0.37205   Biso      1.000     O          -0.577779           
         O10       1.0000    0.52159   0.37205   0.99361   Biso      1.000     O          -0.57778  
         O11       1.0000    0.99361   0.11275   0.37205   Biso      1.000     O          -0.577779           
         O12       1.0000    0.37205   0.99361   0.52159   Biso      1.000     O          -0.57778  
         O13       1.0000    0.11275   0.99361   0.37205   Biso      1.000     O          -0.577779           
         O14       1.0000    0.62795   0.47841   0.00639   Biso      1.000     O          -0.577779           
         O15       1.0000    0.99361   0.52159   0.37205   Biso      1.000     O          -0.577779           
         O16       1.0000    0.47841   0.00639   0.62795   Biso      1.000     O          -0.57778  
         O17       1.0000    0.88725   0.62795   0.00639   Biso      1.000     O          -0.577779           
         O18       1.0000    0.00639   0.88725   0.62795   Biso      1.000     O          -0.577779           
         O19       1.0000    0.88725   0.00639   0.47841   Biso      1.000     O          -0.577786           
         O20       1.0000    0.47841   0.62795   0.88725   Biso      1.000     O          -0.577778           
         O21       1.0000    0.47841   0.88725   0.00639   Biso      1.000     O          -0.577785           
         O22       1.0000    0.88725   0.47841   0.62795   Biso      1.000     O          -0.577778           
         O23       1.0000    0.62795   0.00639   0.88725   Biso      1.000     O          -0.577779           
         O24       1.0000    0.00639   0.62795   0.47841   Biso      1.000     O          -0.57778  
         O25       1.0000    0.11275   0.37205   0.52159   Biso      1.000     O          -0.577778           
         O26       1.0000    0.37205   0.52159   0.99361   Biso      1.000     O          -0.57778  
         O27       1.0000    0.52159   0.99361   0.11275   Biso      1.000     O          -0.577785           
         O28       1.0000    0.37205   0.11275   0.99361   Biso      1.000     O          -0.577779           
         O29       1.0000    0.11275   0.99361   0.52159   Biso      1.000     O          -0.577786           
         O30       1.0000    0.62795   0.88725   0.47841   Biso      1.000     O          -0.577778           
         O31       1.0000    0.52159   0.11275   0.99361   Biso      1.000     O          -0.577786           
         O32       1.0000    0.00639   0.47841   0.88725   Biso      1.000     O          -0.577786           
         O33       1.0000    0.62795   0.00639   0.47841   Biso      1.000     O          -0.57778  
         O34       1.0000    0.52159   0.37205   0.11275   Biso      1.000     O          -0.577778           
         O35       1.0000    0.47841   0.88725   0.62795   Biso      1.000     O          -0.577778           
         O36       1.0000    0.88725   0.47841   0.00639   Biso      1.000     O          -0.577786           
         O37       1.0000    0.62795   0.47841   0.88725   Biso      1.000     O          -0.577778           
         O38       1.0000    0.00639   0.88725   0.47841   Biso      1.000     O          -0.577786           
         O39       1.0000    0.47841   0.62795   0.00639   Biso      1.000     O          -0.577779           
         O40       1.0000    0.00639   0.62795   0.88725   Biso      1.000     O          -0.577779           
         O41       1.0000    0.62795   0.88725   0.00639   Biso      1.000     O          -0.577779           
         O42       1.0000    0.00639   0.47841   0.62795   Biso      1.000     O          -0.57778  
         O43       1.0000    0.47841   0.00639   0.88725   Biso      1.000     O          -0.577786           
         O44       1.0000    0.88725   0.62795   0.47841   Biso      1.000     O          -0.577778           
         O45       1.0000    0.99361   0.37205   0.52159   Biso      1.000     O          -0.57778  
         O46       1.0000    0.37205   0.99361   0.11275   Biso      1.000     O          -0.577779           
         O47       1.0000    0.11275   0.52159   0.37205   Biso      1.000     O          -0.577778           
         O48       1.0000    0.88725   0.00639   0.62795   Biso      1.000     O          -0.577779           
         Zn1       1.0000    0.07916   0.50000   0.92084   Biso      1.000     Zn          1.055843  
         Zn2       1.0000    0.50000   0.92084   0.50000   Biso      1.000     Zn          1.055851  
         Zn3       1.0000    0.92084   0.50000   0.07916   Biso      1.000     Zn          1.055844  
         Zn4       1.0000    0.50000   0.50000   0.92084   Biso      1.000     Zn          1.055851  
         Zn5       1.0000    0.07916   0.92084   0.50000   Biso      1.000     Zn          1.055843  
         Zn6       1.0000    0.07916   0.50000   0.50000   Biso      1.000     Zn          1.055852  
         Zn7       1.0000    0.92084   0.07916   0.50000   Biso      1.000     Zn          1.055844  
         Zn8       1.0000    0.50000   0.92084   0.07916   Biso      1.000     Zn          1.055843  
         Zn9       1.0000    0.50000   0.07916   0.92084   Biso      1.000     Zn          1.055844  
         Zn10      1.0000    0.92084   0.50000   0.50000   Biso      1.000     Zn          1.055851  
         Zn11      1.0000    0.50000   0.50000   0.07916   Biso      1.000     Zn          1.055851  
         Zn12      1.0000    0.50000   0.07916   0.50000   Biso      1.000     Zn          1.055852 