
##########################################################################
#               Crystallographic Information Format file
#               Produced by PyCifRW module
#
#  This is a CIF file.  CIF has been adopted by the International
#  Union of Crystallography as the standard for data archiving and
#  transmission.
#
#  For information on this file format, follow the CIF links at
#  http://www.iucr.org
##########################################################################

data_image0

_cell_length_a                          6.329
_cell_length_b                          8.743
_cell_length_c                          13
_cell_angle_alpha                       105.61
_cell_angle_beta                        90.55
_cell_angle_gamma                       105.1
_symmetry_space_group_name_H-M          'P 1'
_symmetry_int_tables_number             1
loop_
  _symmetry_equiv_pos_as_xyz
         'x, y, z' 
loop_
  _atom_site_label
  _atom_site_occupancy
  _atom_site_fract_x
  _atom_site_fract_y
  _atom_site_fract_z
  _atom_site_thermal_displace_type
  _atom_site_B_iso_or_equiv
  _atom_site_type_symbol
  _atom_site_charge
         C1        1.0000    0.09370   0.08050   0.52160   Biso      1.000     C          0.508576  
         C2        1.0000    0.78540   0.70800   0.13100   Biso      1.000     C          0.910323  
         C3        1.0000    0.44600   0.05120   0.04550   Biso      1.000     C          0.5469350000000001  
         C4        1.0000    0.04430   0.30570   0.12950   Biso      1.000     C          0.538395  
         C5        1.0000    0.76740   0.60390   0.78090   Biso      1.000     C          0.507727  
         C6        1.0000    0.95570   0.69430   0.87050   Biso      1.000     C          0.538397  
         C7        1.0000    0.55400   0.94880   0.95450   Biso      1.000     C          0.5469350000000001  
         C8        1.0000    0.90630   0.91950   0.47840   Biso      1.000     C          0.508583  
         C9        1.0000    0.21460   0.29200   0.86900   Biso      1.000     C          0.91032   
         C10       1.0000    0.23260   0.39610   0.21910   Biso      1.000     C          0.50772   
         Ce1       1.0000    0.93974   0.96987   0.74275   Biso      1.000     Ce          1.9652180000000001  
         Ce2       1.0000    0.06026   0.03013   0.25725   Biso      1.000     Ce          1.9652740000000002  
         Ce3       1.0000    0.69037   0.33301   0.92472   Biso      1.000     Ce          2.06975   
         Ce4       1.0000    0.30963   0.66699   0.07528   Biso      1.000     Ce          2.069746  
         O1        1.0000    0.26490   0.31830   0.28370   Biso      1.000     O          -0.5632590000000001           
         O2        1.0000    0.98700   0.73100   0.16010   Biso      1.000     O          -0.7645569999999999           
         O3        1.0000    0.66190   0.56930   0.07610   Biso      1.000     O          -0.739785           
         O4        1.0000    0.14180   0.12820   0.62090   Biso      1.000     O          -0.484843           
         O5        1.0000    0.18570   0.14790   0.45420   Biso      1.000     O          -0.524526           
         O6        1.0000    0.32900   0.97170   0.10300   Biso      1.000     O          -0.671547           
         O7        1.0000    0.48060   0.20150   0.05550   Biso      1.000     O          -0.532728           
         O8        1.0000    0.00730   0.38650   0.06750   Biso      1.000     O          -0.638675           
         O9        1.0000    0.94490   0.16160   0.12610   Biso      1.000     O          -0.5532100000000001           
         O10       1.0000    0.33580   0.54120   0.22400   Biso      1.000     O          -0.5044850000000001           
         O11       1.0000    0.63930   0.10290   0.70640   Biso      1.000     O          -0.32998099999999997          
         O12       1.0000    0.51940   0.79850   0.94450   Biso      1.000     O          -0.53272  
         O13       1.0000    0.01300   0.26900   0.83990   Biso      1.000     O          -0.7645390000000001           
         O14       1.0000    0.33810   0.43070   0.92390   Biso      1.000     O          -0.7397779999999999           
         O15       1.0000    0.85820   0.87180   0.37910   Biso      1.000     O          -0.484834           
         O16       1.0000    0.81430   0.85210   0.54580   Biso      1.000     O          -0.5245270000000001           
         O17       1.0000    0.67100   0.02830   0.89700   Biso      1.000     O          -0.671542           
         O18       1.0000    0.70310   0.83070   0.16020   Biso      1.000     O          -0.739363           
         O19       1.0000    0.99270   0.61350   0.93250   Biso      1.000     O          -0.6386729999999999           
         O20       1.0000    0.05510   0.83840   0.87390   Biso      1.000     O          -0.553218           
         O21       1.0000    0.66420   0.45880   0.77600   Biso      1.000     O          -0.50451  
         O22       1.0000    0.73510   0.68170   0.71630   Biso      1.000     O          -0.56324  
         O23       1.0000    0.29690   0.16930   0.83980   Biso      1.000     O          -0.739355           
         O24       1.0000    0.36070   0.89710   0.29360   Biso      1.000     O          -0.330006 