
##########################################################################
#               Crystallographic Information Format file
#               Produced by PyCifRW module
#
#  This is a CIF file.  CIF has been adopted by the International
#  Union of Crystallography as the standard for data archiving and
#  transmission.
#
#  For information on this file format, follow the CIF links at
#  http://www.iucr.org
##########################################################################

data_image0

_cell_length_a                          7.5721
_cell_length_b                          15.595
_cell_length_c                          16.7063
_cell_angle_alpha                       90
_cell_angle_beta                        94.433
_cell_angle_gamma                       90
_symmetry_space_group_name_H-M          'P 1'
_symmetry_int_tables_number             1
loop_
  _symmetry_equiv_pos_as_xyz
         'x, y, z' 
loop_
  _atom_site_label
  _atom_site_occupancy
  _atom_site_fract_x
  _atom_site_fract_y
  _atom_site_fract_z
  _atom_site_thermal_displace_type
  _atom_site_B_iso_or_equiv
  _atom_site_type_symbol
  _atom_site_charge
         C1        1.0000    0.74160   0.19250   0.54940   Biso      1.000     C          0.543443  
         C2        1.0000    0.25840   0.80750   0.45060   Biso      1.000     C          0.544929  
         C3        1.0000    0.09190   0.31510   0.32030   Biso      1.000     C          0.13231099999999998           
         C4        1.0000    0.08970   0.23900   0.37690   Biso      1.000     C          0.529193  
         C5        1.0000    0.25340   0.40790   0.25430   Biso      1.000     C          0.255861  
         C6        1.0000    0.59990   0.26480   0.09470   Biso      1.000     C          0.147037  
         C7        1.0000    0.74660   0.59210   0.74570   Biso      1.000     C          0.253983  
         C8        1.0000    0.40010   0.76480   0.40530   Biso      1.000     C          0.145629  
         C9        1.0000    0.91030   0.76100   0.62310   Biso      1.000     C          0.527622  
         C10       1.0000    0.06190   0.65230   0.71820   Biso      1.000     C          -0.18160199999999999          
         C11       1.0000    0.04260   0.58820   0.77340   Biso      1.000     C          0.162273  
         C12       1.0000    0.20040   0.54720   0.81970   Biso      1.000     C          0.542845  
         C13       1.0000    0.69220   0.75420   0.88780   Biso      1.000     C          0.246837  
         C14       1.0000    0.45530   0.86720   0.72100   Biso      1.000     C          0.585923  
         C15       1.0000    0.49480   0.81980   0.79920   Biso      1.000     C          0.15968800000000002           
         C16       1.0000    0.90810   0.68490   0.67970   Biso      1.000     C          0.136157  
         C17       1.0000    0.35640   0.79020   0.84220   Biso      1.000     C          -0.189202           
         C18       1.0000    0.35640   0.70980   0.34220   Biso      1.000     C          -0.188174           
         C19       1.0000    0.45530   0.63280   0.22100   Biso      1.000     C          0.58663   
         C20       1.0000    0.64360   0.20980   0.15780   Biso      1.000     C          -0.183981           
         C21       1.0000    0.50520   0.18020   0.20080   Biso      1.000     C          0.165479  
         C22       1.0000    0.54470   0.13280   0.27900   Biso      1.000     C          0.586522  
         C23       1.0000    0.30780   0.24580   0.11220   Biso      1.000     C          0.244567  
         C24       1.0000    0.79960   0.45280   0.18030   Biso      1.000     C          0.542239  
         C25       1.0000    0.95740   0.41180   0.22660   Biso      1.000     C          0.163526  
         C26       1.0000    0.49480   0.68020   0.29920   Biso      1.000     C          0.160168  
         C27       1.0000    0.93810   0.34770   0.28180   Biso      1.000     C          -0.180804           
         C28       1.0000    0.91030   0.73900   0.12310   Biso      1.000     C          0.527632  
         C29       1.0000    0.90810   0.81510   0.17970   Biso      1.000     C          0.13455599999999998           
         C30       1.0000    0.06190   0.84770   0.21820   Biso      1.000     C          -0.181446           
         C31       1.0000    0.04260   0.91180   0.27340   Biso      1.000     C          0.162934  
         C32       1.0000    0.20040   0.95280   0.31970   Biso      1.000     C          0.543326  
         C33       1.0000    0.69220   0.74580   0.38780   Biso      1.000     C          0.248021  
         C34       1.0000    0.74660   0.90790   0.24570   Biso      1.000     C          0.25406   
         C35       1.0000    0.40010   0.73520   0.90530   Biso      1.000     C          0.145679  
         C36       1.0000    0.74160   0.30750   0.04940   Biso      1.000     C          0.543809  
         C37       1.0000    0.79960   0.04720   0.68030   Biso      1.000     C          0.542234  
         C38       1.0000    0.25340   0.09210   0.75430   Biso      1.000     C          0.255804  
         C39       1.0000    0.25840   0.69250   0.95060   Biso      1.000     C          0.544373  
         C40       1.0000    0.95740   0.08820   0.72660   Biso      1.000     C          0.163686  
         C41       1.0000    0.93810   0.15230   0.78180   Biso      1.000     C          -0.18083  
         C42       1.0000    0.08970   0.26100   0.87690   Biso      1.000     C          0.528999  
         C43       1.0000    0.30780   0.25420   0.61220   Biso      1.000     C          0.24457199999999998           
         C44       1.0000    0.54470   0.36720   0.77900   Biso      1.000     C          0.586187  
         C45       1.0000    0.50520   0.31980   0.70080   Biso      1.000     C          0.16528900000000002           
         C46       1.0000    0.64360   0.29020   0.65780   Biso      1.000     C          -0.18441  
         C47       1.0000    0.59990   0.23520   0.59470   Biso      1.000     C          0.14670999999999998           
         C48       1.0000    0.09190   0.18490   0.82030   Biso      1.000     C          0.132222  
         Eu1       1.0000    0.13348   0.55051   0.09434   Biso      1.000     Eu          1.373014  
         Eu2       1.0000    0.62611   0.89774   0.54005   Biso      1.000     Eu          1.339397  
         Eu3       1.0000    0.37389   0.39774   0.95995   Biso      1.000     Eu          1.337797  
         Eu4       1.0000    0.13348   0.94949   0.59434   Biso      1.000     Eu          1.372884  
         Eu5       1.0000    0.62611   0.60226   0.04005   Biso      1.000     Eu          1.339948  
         Eu6       1.0000    0.37389   0.10226   0.45995   Biso      1.000     Eu          1.338403  
         Eu7       1.0000    0.86652   0.05051   0.40566   Biso      1.000     Eu          1.373527  
         Eu8       1.0000    0.86652   0.44949   0.90566   Biso      1.000     Eu          1.373326  
         H1        1.0000    0.23980   0.69310   0.32890   Biso      1.000     H          0.15670699999999999           
         H2        1.0000    0.82710   0.17280   0.79260   Biso      1.000     H          0.158216  
         H3        1.0000    0.17290   0.82720   0.20740   Biso      1.000     H          0.158386  
         H4        1.0000    0.36410   0.06930   0.74600   Biso      1.000     H          0.083969  
         H5        1.0000    0.23980   0.80690   0.82890   Biso      1.000     H          0.156859  
         H6        1.0000    0.45800   0.46700   0.10500   Biso      1.000     H          0.47947   
         H7        1.0000    0.54200   0.53300   0.89500   Biso      1.000     H          0.47916800000000004           
         H8        1.0000    0.45800   0.03300   0.60500   Biso      1.000     H          0.479397  
         H9        1.0000    0.80950   0.75460   0.40680   Biso      1.000     H          0.079578  
         H10       1.0000    0.92800   0.60600   0.96900   Biso      1.000     H          0.624382  
         H11       1.0000    0.63590   0.93070   0.25400   Biso      1.000     H          0.083935  
         H12       1.0000    0.17290   0.67280   0.70740   Biso      1.000     H          0.158613  
         H13       1.0000    0.36410   0.43070   0.24600   Biso      1.000     H          0.08399   
         H14       1.0000    0.07200   0.10600   0.53100   Biso      1.000     H          0.623767  
         H15       1.0000    0.82710   0.32720   0.29260   Biso      1.000     H          0.158189  
         H16       1.0000    0.80950   0.74540   0.90680   Biso      1.000     H          0.079373  
         H17       1.0000    0.54200   0.96700   0.39500   Biso      1.000     H          0.47975100000000004           
         H18       1.0000    0.19050   0.25460   0.09320   Biso      1.000     H          0.078911  
         H19       1.0000    0.92800   0.89400   0.46900   Biso      1.000     H          0.624572  
         H20       1.0000    0.76020   0.30690   0.67110   Biso      1.000     H          0.156949  
         H21       1.0000    0.63590   0.56930   0.75400   Biso      1.000     H          0.083851  
         H22       1.0000    0.76020   0.19310   0.17110   Biso      1.000     H          0.157067  
         H23       1.0000    0.07200   0.39400   0.03100   Biso      1.000     H          0.623854  
         H24       1.0000    0.19050   0.24540   0.59320   Biso      1.000     H          0.078863  
         N1        1.0000    0.25040   0.15320   0.80850   Biso      1.000     N          -0.259293           
         N2        1.0000    0.66410   0.69660   0.32370   Biso      1.000     N          -0.257965           
         N3        1.0000    0.74960   0.84680   0.19150   Biso      1.000     N          -0.25490100000000004          
         N4        1.0000    0.56760   0.78460   0.42820   Biso      1.000     N          -0.27376300000000003          
         N5        1.0000    0.88370   0.94100   0.28990   Biso      1.000     N          -0.285875           
         N6        1.0000    0.66410   0.80340   0.82370   Biso      1.000     N          -0.25956799999999997          
         N7        1.0000    0.33590   0.30340   0.67630   Biso      1.000     N          -0.265204           
         N8        1.0000    0.56760   0.71540   0.92820   Biso      1.000     N          -0.271203           
         N9        1.0000    0.43240   0.21540   0.57180   Biso      1.000     N          -0.280823           
         N10       1.0000    0.74960   0.65320   0.69150   Biso      1.000     N          -0.253313           
         N11       1.0000    0.25040   0.34680   0.30850   Biso      1.000     N          -0.259278           
         N12       1.0000    0.88370   0.55900   0.78990   Biso      1.000     N          -0.285159           
         N13       1.0000    0.33590   0.19660   0.17630   Biso      1.000     N          -0.263447           
         N14       1.0000    0.43240   0.28460   0.07180   Biso      1.000     N          -0.280948           
         N15       1.0000    0.11630   0.05900   0.71010   Biso      1.000     N          -0.287101           
         N16       1.0000    0.11630   0.44100   0.21010   Biso      1.000     N          -0.287148           
         O1        1.0000    0.68690   0.35940   0.99350   Biso      1.000     O          -0.579267           
         O2        1.0000    0.89760   0.29290   0.07120   Biso      1.000     O          -0.476657           
         O3        1.0000    0.42000   0.49100   0.07250   Biso      1.000     O          -0.9911200000000001           
         O4        1.0000    0.09240   0.42450   0.01300   Biso      1.000     O          -1.208015           
         O5        1.0000    0.21680   0.22950   0.42730   Biso      1.000     O          -0.137481           
         O6        1.0000    0.95780   0.18930   0.36670   Biso      1.000     O          -0.45074  
         O7        1.0000    0.65020   0.42900   0.19370   Biso      1.000     O          -0.47919799999999996          
         O8        1.0000    0.83520   0.50860   0.12700   Biso      1.000     O          -0.566059           
         O9        1.0000    0.42840   0.13740   0.32820   Biso      1.000     O          -0.555499           
         O10       1.0000    0.68900   0.09570   0.28900   Biso      1.000     O          -0.545004           
         O11       1.0000    0.72000   0.70000   0.52000   Biso      1.000     O          -0.20183299999999998          
         O12       1.0000    0.58000   0.99100   0.42750   Biso      1.000     O          -0.9923770000000001           
         O13       1.0000    0.68690   0.14060   0.49350   Biso      1.000     O          -0.5781   
         O14       1.0000    0.89760   0.20710   0.57120   Biso      1.000     O          -0.476058           
         O15       1.0000    0.68900   0.40430   0.78900   Biso      1.000     O          -0.547381           
         O16       1.0000    0.42840   0.36260   0.82820   Biso      1.000     O          -0.552221           
         O17       1.0000    0.83520   0.99140   0.62700   Biso      1.000     O          -0.567109           
         O18       1.0000    0.65020   0.07100   0.69370   Biso      1.000     O          -0.479588           
         O19       1.0000    0.95780   0.31070   0.86670   Biso      1.000     O          -0.450705           
         O20       1.0000    0.21680   0.27050   0.92730   Biso      1.000     O          -0.137434           
         O21       1.0000    0.09240   0.07550   0.51300   Biso      1.000     O          -1.2075690000000001           
         O22       1.0000    0.42000   0.00900   0.57250   Biso      1.000     O          -0.9929620000000001           
         O23       1.0000    0.28000   0.20000   0.98000   Biso      1.000     O          -0.150343           
         O24       1.0000    0.31310   0.64060   0.00650   Biso      1.000     O          -0.5774189999999999           
         O25       1.0000    0.10240   0.70710   0.92880   Biso      1.000     O          -0.46692  
         O26       1.0000    0.31100   0.90430   0.71100   Biso      1.000     O          -0.541804           
         O27       1.0000    0.72000   0.80000   0.02000   Biso      1.000     O          -0.196037           
         O28       1.0000    0.57160   0.86260   0.67180   Biso      1.000     O          -0.541922           
         O29       1.0000    0.34980   0.57100   0.80630   Biso      1.000     O          -0.46816899999999995          
         O30       1.0000    0.04220   0.81070   0.63330   Biso      1.000     O          -0.45688599999999996          
         O31       1.0000    0.78320   0.77050   0.57270   Biso      1.000     O          -0.13691  
         O32       1.0000    0.90760   0.57550   0.98700   Biso      1.000     O          -1.209336           
         O33       1.0000    0.58000   0.50900   0.92750   Biso      1.000     O          -0.991949           
         O34       1.0000    0.31310   0.85940   0.50650   Biso      1.000     O          -0.5773010000000001           
         O35       1.0000    0.10240   0.79290   0.42880   Biso      1.000     O          -0.473109           
         O36       1.0000    0.31100   0.59570   0.21100   Biso      1.000     O          -0.543347           
         O37       1.0000    0.57160   0.63740   0.17180   Biso      1.000     O          -0.547737           
         O38       1.0000    0.16480   0.00860   0.37300   Biso      1.000     O          -0.570758           
         O39       1.0000    0.34980   0.92900   0.30630   Biso      1.000     O          -0.473921           
         O40       1.0000    0.04220   0.68930   0.13330   Biso      1.000     O          -0.455528           
         O41       1.0000    0.78320   0.72950   0.07270   Biso      1.000     O          -0.136627           
         O42       1.0000    0.90760   0.92450   0.48700   Biso      1.000     O          -1.205403           
         O43       1.0000    0.16480   0.49140   0.87300   Biso      1.000     O          -0.570473           
         O44       1.0000    0.28000   0.30000   0.48000   Biso      1.000     O          -0.149354 