
##########################################################################
#               Crystallographic Information Format file
#               Produced by PyCifRW module
#
#  This is a CIF file.  CIF has been adopted by the International
#  Union of Crystallography as the standard for data archiving and
#  transmission.
#
#  For information on this file format, follow the CIF links at
#  http://www.iucr.org
##########################################################################

data_image0

_cell_length_a                          7.5755
_cell_length_b                          15.6186
_cell_length_c                          16.6991
_cell_angle_alpha                       90
_cell_angle_beta                        94.375
_cell_angle_gamma                       90
_symmetry_space_group_name_H-M          'P 1'
_symmetry_int_tables_number             1
loop_
  _symmetry_equiv_pos_as_xyz
         'x, y, z' 
loop_
  _atom_site_label
  _atom_site_occupancy
  _atom_site_fract_x
  _atom_site_fract_y
  _atom_site_fract_z
  _atom_site_thermal_displace_type
  _atom_site_B_iso_or_equiv
  _atom_site_type_symbol
  _atom_site_charge
         C1        1.0000    0.49300   0.81930   0.79990   Biso      1.000     C          0.157486  
         C2        1.0000    0.35570   0.71070   0.34110   Biso      1.000     C          -0.200679           
         C3        1.0000    0.49300   0.68070   0.29990   Biso      1.000     C          0.157494  
         C4        1.0000    0.45770   0.63260   0.22160   Biso      1.000     C          0.575008  
         C5        1.0000    0.69070   0.74570   0.38820   Biso      1.000     C          0.245524  
         C6        1.0000    0.20130   0.95200   0.32020   Biso      1.000     C          0.544165  
         C7        1.0000    0.04410   0.91250   0.27360   Biso      1.000     C          0.160172  
         C8        1.0000    0.06410   0.84740   0.21880   Biso      1.000     C          -0.198044           
         C9        1.0000    0.91130   0.81450   0.17970   Biso      1.000     C          0.156542  
         C10       1.0000    0.91450   0.73840   0.12300   Biso      1.000     C          0.573348  
         C11       1.0000    0.39960   0.76540   0.40520   Biso      1.000     C          0.155199  
         C12       1.0000    0.74560   0.90800   0.24680   Biso      1.000     C          0.242862  
         C13       1.0000    0.60040   0.26540   0.09480   Biso      1.000     C          0.155196  
         C14       1.0000    0.64430   0.21070   0.15890   Biso      1.000     C          -0.200677           
         C15       1.0000    0.50700   0.18070   0.20010   Biso      1.000     C          0.157492  
         C16       1.0000    0.54230   0.13260   0.27840   Biso      1.000     C          0.575007  
         C17       1.0000    0.30930   0.24570   0.11180   Biso      1.000     C          0.245519  
         C18       1.0000    0.79870   0.45200   0.17980   Biso      1.000     C          0.544165  
         C19       1.0000    0.95590   0.41250   0.22640   Biso      1.000     C          0.160172  
         C20       1.0000    0.93590   0.34740   0.28120   Biso      1.000     C          -0.198044           
         C21       1.0000    0.08870   0.31450   0.32030   Biso      1.000     C          0.156546  
         C22       1.0000    0.74180   0.30820   0.05010   Biso      1.000     C          0.547424  
         C23       1.0000    0.25820   0.80820   0.44990   Biso      1.000     C          0.547424  
         C24       1.0000    0.74180   0.19180   0.55010   Biso      1.000     C          0.547424  
         C25       1.0000    0.60040   0.23460   0.59480   Biso      1.000     C          0.155195  
         C26       1.0000    0.74560   0.59200   0.74680   Biso      1.000     C          0.242863  
         C27       1.0000    0.91450   0.76160   0.62300   Biso      1.000     C          0.573351  
         C28       1.0000    0.91130   0.68550   0.67970   Biso      1.000     C          0.15654   
         C29       1.0000    0.06410   0.65260   0.71880   Biso      1.000     C          -0.19804  
         C30       1.0000    0.04410   0.58750   0.77360   Biso      1.000     C          0.160174  
         C31       1.0000    0.20130   0.54800   0.82020   Biso      1.000     C          0.544165  
         C32       1.0000    0.69070   0.75430   0.88820   Biso      1.000     C          0.245518  
         C33       1.0000    0.45770   0.86740   0.72160   Biso      1.000     C          0.575009  
         C34       1.0000    0.35570   0.78930   0.84110   Biso      1.000     C          -0.200674           
         C35       1.0000    0.39960   0.73460   0.90520   Biso      1.000     C          0.155195  
         C36       1.0000    0.25820   0.69180   0.94990   Biso      1.000     C          0.547424  
         C37       1.0000    0.25440   0.09200   0.75320   Biso      1.000     C          0.242864  
         C38       1.0000    0.08550   0.26160   0.87700   Biso      1.000     C          0.573356  
         C39       1.0000    0.08870   0.18550   0.82030   Biso      1.000     C          0.156542  
         C40       1.0000    0.93590   0.15260   0.78120   Biso      1.000     C          -0.198041           
         C41       1.0000    0.95590   0.08750   0.72640   Biso      1.000     C          0.160173  
         C42       1.0000    0.79870   0.04800   0.67980   Biso      1.000     C          0.544165  
         C43       1.0000    0.30930   0.25430   0.61180   Biso      1.000     C          0.245519  
         C44       1.0000    0.54230   0.36740   0.77840   Biso      1.000     C          0.575011  
         C45       1.0000    0.50700   0.31930   0.70010   Biso      1.000     C          0.157487  
         C46       1.0000    0.64430   0.28930   0.65890   Biso      1.000     C          -0.200672           
         C47       1.0000    0.08550   0.23840   0.37700   Biso      1.000     C          0.573352  
         C48       1.0000    0.25440   0.40800   0.25320   Biso      1.000     C          0.242865  
         Eu1       1.0000    0.62558   0.89792   0.54017   Biso      1.000     Eu          1.221993  
         Eu2       1.0000    0.86696   0.05043   0.40551   Biso      1.000     Eu          1.22269   
         Eu3       1.0000    0.37442   0.39792   0.95983   Biso      1.000     Eu          1.221999  
         Eu4       1.0000    0.13304   0.55043   0.09449   Biso      1.000     Eu          1.222691  
         Eu5       1.0000    0.37442   0.10208   0.45983   Biso      1.000     Eu          1.222001  
         Eu6       1.0000    0.13304   0.94957   0.59449   Biso      1.000     Eu          1.222691  
         Eu7       1.0000    0.62558   0.60208   0.04017   Biso      1.000     Eu          1.222001  
         Eu8       1.0000    0.86696   0.44957   0.90551   Biso      1.000     Eu          1.222692  
         H1        1.0000    0.17530   0.67330   0.70870   Biso      1.000     H          0.156483  
         H2        1.0000    0.63510   0.56970   0.75590   Biso      1.000     H          0.086748  
         H3        1.0000    0.80800   0.75390   0.40740   Biso      1.000     H          0.08693   
         H4        1.0000    0.17530   0.82670   0.20870   Biso      1.000     H          0.156482  
         H5        1.0000    0.23900   0.69520   0.32680   Biso      1.000     H          0.159281  
         H6        1.0000    0.76100   0.19520   0.17320   Biso      1.000     H          0.15928   
         H7        1.0000    0.80800   0.74610   0.90740   Biso      1.000     H          0.086928  
         H8        1.0000    0.63510   0.93030   0.25590   Biso      1.000     H          0.086748  
         H9        1.0000    0.36490   0.06970   0.74410   Biso      1.000     H          0.086747  
         H10       1.0000    0.82470   0.17330   0.79130   Biso      1.000     H          0.156482  
         H11       1.0000    0.19200   0.24610   0.59260   Biso      1.000     H          0.08693   
         H12       1.0000    0.23900   0.80480   0.82680   Biso      1.000     H          0.15928   
         H13       1.0000    0.36490   0.43030   0.24410   Biso      1.000     H          0.086747  
         H14       1.0000    0.82470   0.32670   0.29130   Biso      1.000     H          0.156482  
         H15       1.0000    0.19200   0.25390   0.09260   Biso      1.000     H          0.086929  
         H16       1.0000    0.76100   0.30480   0.67320   Biso      1.000     H          0.15928   
         N1        1.0000    0.33670   0.30370   0.67640   Biso      1.000     N          -0.254648           
         N2        1.0000    0.75010   0.65350   0.69140   Biso      1.000     N          -0.243616           
         N3        1.0000    0.88500   0.55950   0.79030   Biso      1.000     N          -0.277004           
         N4        1.0000    0.66330   0.80370   0.82360   Biso      1.000     N          -0.254649           
         N5        1.0000    0.56760   0.71500   0.92850   Biso      1.000     N          -0.27376  
         N6        1.0000    0.24990   0.15350   0.80860   Biso      1.000     N          -0.24362  
         N7        1.0000    0.11500   0.05950   0.70970   Biso      1.000     N          -0.277004           
         N8        1.0000    0.43240   0.21500   0.57150   Biso      1.000     N          -0.27376  
         N9        1.0000    0.33670   0.19630   0.17640   Biso      1.000     N          -0.254647           
         N10       1.0000    0.11500   0.44050   0.20970   Biso      1.000     N          -0.277006           
         N11       1.0000    0.43240   0.28500   0.07150   Biso      1.000     N          -0.273761           
         N12       1.0000    0.75010   0.84650   0.19140   Biso      1.000     N          -0.243615           
         N13       1.0000    0.88500   0.94050   0.29030   Biso      1.000     N          -0.277003           
         N14       1.0000    0.66330   0.69630   0.32360   Biso      1.000     N          -0.254654           
         N15       1.0000    0.56760   0.78500   0.42850   Biso      1.000     N          -0.273759           
         N16       1.0000    0.24990   0.34650   0.30860   Biso      1.000     N          -0.243618           
         O1        1.0000    0.89750   0.20710   0.57140   Biso      1.000     O          -0.408526           
         O2        1.0000    0.68840   0.40420   0.78900   Biso      1.000     O          -0.504388           
         O3        1.0000    0.42860   0.36330   0.82780   Biso      1.000     O          -0.483354           
         O4        1.0000    0.83460   0.99150   0.62680   Biso      1.000     O          -0.569371           
         O5        1.0000    0.64920   0.07120   0.69410   Biso      1.000     O          -0.403555           
         O6        1.0000    0.95610   0.31050   0.86690   Biso      1.000     O          -0.485219           
         O7        1.0000    0.21530   0.27150   0.92720   Biso      1.000     O          -0.490083           
         O8        1.0000    0.09250   0.07640   0.51350   Biso      1.000     O          -0.463084           
         O9        1.0000    0.31160   0.90420   0.71100   Biso      1.000     O          -0.504391           
         O10       1.0000    0.31340   0.63950   0.00580   Biso      1.000     O          -0.571621           
         O11       1.0000    0.10250   0.70710   0.92860   Biso      1.000     O          -0.408522           
         O12       1.0000    0.57140   0.86330   0.67220   Biso      1.000     O          -0.483352           
         O13       1.0000    0.16540   0.49150   0.87320   Biso      1.000     O          -0.569375           
         O14       1.0000    0.35080   0.57120   0.80590   Biso      1.000     O          -0.403553           
         O15       1.0000    0.04390   0.81050   0.63310   Biso      1.000     O          -0.485208           
         O16       1.0000    0.78470   0.77150   0.57280   Biso      1.000     O          -0.49009  
         O17       1.0000    0.68660   0.13950   0.49420   Biso      1.000     O          -0.571625           
         O18       1.0000    0.41950   0.00940   0.57360   Biso      1.000     O          -0.464906           
         O19       1.0000    0.41950   0.49060   0.07360   Biso      1.000     O          -0.464906           
         O20       1.0000    0.31340   0.86050   0.50580   Biso      1.000     O          -0.571625           
         O21       1.0000    0.21530   0.22850   0.42720   Biso      1.000     O          -0.490089           
         O22       1.0000    0.90750   0.57640   0.98650   Biso      1.000     O          -0.463099           
         O23       1.0000    0.10250   0.79290   0.42860   Biso      1.000     O          -0.408528           
         O24       1.0000    0.31160   0.59580   0.21100   Biso      1.000     O          -0.504389           
         O25       1.0000    0.57140   0.63670   0.17220   Biso      1.000     O          -0.483348           
         O26       1.0000    0.16540   0.00850   0.37320   Biso      1.000     O          -0.569374           
         O27       1.0000    0.35080   0.92880   0.30590   Biso      1.000     O          -0.403554           
         O28       1.0000    0.04390   0.68950   0.13310   Biso      1.000     O          -0.485214           
         O29       1.0000    0.78470   0.72850   0.07280   Biso      1.000     O          -0.490083           
         O30       1.0000    0.90750   0.92360   0.48650   Biso      1.000     O          -0.463091           
         O31       1.0000    0.58050   0.99060   0.42640   Biso      1.000     O          -0.464905           
         O32       1.0000    0.68660   0.36050   0.99420   Biso      1.000     O          -0.571623           
         O33       1.0000    0.89750   0.29290   0.07140   Biso      1.000     O          -0.408525           
         O34       1.0000    0.68840   0.09580   0.28900   Biso      1.000     O          -0.504388           
         O35       1.0000    0.42860   0.13670   0.32780   Biso      1.000     O          -0.483353           
         O36       1.0000    0.83460   0.50850   0.12680   Biso      1.000     O          -0.569373           
         O37       1.0000    0.64920   0.42880   0.19410   Biso      1.000     O          -0.403555           
         O38       1.0000    0.95610   0.18950   0.36690   Biso      1.000     O          -0.485214           
         O39       1.0000    0.09250   0.42360   0.01350   Biso      1.000     O          -0.463088           
         O40       1.0000    0.58050   0.50940   0.92640   Biso      1.000     O          -0.464908 