
##########################################################################
#               Crystallographic Information Format file
#               Produced by PyCifRW module
#
#  This is a CIF file.  CIF has been adopted by the International
#  Union of Crystallography as the standard for data archiving and
#  transmission.
#
#  For information on this file format, follow the CIF links at
#  http://www.iucr.org
##########################################################################

data_image0

_cell_length_a                          7.437
_cell_length_b                          11.278
_cell_length_c                          15.164
_cell_angle_alpha                       90
_cell_angle_beta                        90
_cell_angle_gamma                       90
_symmetry_space_group_name_H-M          'P 1'
_symmetry_int_tables_number             1
loop_
  _symmetry_equiv_pos_as_xyz
         'x, y, z' 
loop_
  _atom_site_label
  _atom_site_occupancy
  _atom_site_fract_x
  _atom_site_fract_y
  _atom_site_fract_z
  _atom_site_thermal_displace_type
  _atom_site_B_iso_or_equiv
  _atom_site_type_symbol
  _atom_site_charge
         C1        1.0000    0.40830   0.41794   0.48800   Biso      1.000     C          -0.0031780000000000003        
         C2        1.0000    0.59170   0.91794   0.51200   Biso      1.000     C          -0.0031780000000000003        
         C3        1.0000    0.43960   0.87551   0.46776   Biso      1.000     C          -0.24287899999999998          
         C4        1.0000    0.40470   0.91237   0.38234   Biso      1.000     C          0.266305  
         C5        1.0000    0.51770   0.99381   0.34106   Biso      1.000     C          -0.202097           
         C6        1.0000    0.12120   0.81480   0.37527   Biso      1.000     C          -0.237945           
         C7        1.0000    0.21870   0.63093   0.65818   Biso      1.000     C          0.6000770000000001  
         C8        1.0000    0.36380   0.36816   0.39894   Biso      1.000     C          0.6366970000000001  
         C9        1.0000    0.33580   0.53949   0.61394   Biso      1.000     C          -0.009387000000000001         
         C10       1.0000    0.29660   0.50041   0.52920   Biso      1.000     C          -0.16663499999999998          
         C11       1.0000    0.06040   0.37551   0.96776   Biso      1.000     C          -0.242878           
         C12       1.0000    0.56040   0.37551   0.53224   Biso      1.000     C          -0.24287899999999998          
         C13       1.0000    0.59530   0.41237   0.61766   Biso      1.000     C          0.266305  
         C14       1.0000    0.70340   0.00041   0.47080   Biso      1.000     C          -0.16663699999999998          
         C15       1.0000    0.48230   0.49381   0.65894   Biso      1.000     C          -0.202097           
         C16       1.0000    0.28130   0.13093   0.15818   Biso      1.000     C          0.600078  
         C17       1.0000    0.13620   0.86816   0.89894   Biso      1.000     C          0.636695  
         C18       1.0000    0.16420   0.03949   0.11394   Biso      1.000     C          -0.009387999999999999         
         C19       1.0000    0.20340   0.00041   0.02920   Biso      1.000     C          -0.16663599999999998          
         C20       1.0000    0.09170   0.91794   0.98800   Biso      1.000     C          -0.003177           
         C21       1.0000    0.93960   0.87551   0.03224   Biso      1.000     C          -0.24288  
         C22       1.0000    0.90470   0.91237   0.11766   Biso      1.000     C          0.266305  
         C23       1.0000    0.01770   0.99381   0.15894   Biso      1.000     C          -0.202097           
         C24       1.0000    0.62120   0.81480   0.12473   Biso      1.000     C          -0.237945           
         C25       1.0000    0.71870   0.63093   0.84182   Biso      1.000     C          0.6000770000000001  
         C26       1.0000    0.86380   0.36816   0.10106   Biso      1.000     C          0.6366970000000001  
         C27       1.0000    0.83580   0.53949   0.88606   Biso      1.000     C          -0.009386           
         C28       1.0000    0.87880   0.31480   0.62473   Biso      1.000     C          -0.237945           
         C29       1.0000    0.66420   0.03949   0.38606   Biso      1.000     C          -0.009386           
         C30       1.0000    0.63620   0.86816   0.60106   Biso      1.000     C          0.636696  
         C31       1.0000    0.78130   0.13093   0.34182   Biso      1.000     C          0.6000800000000001  
         C32       1.0000    0.37880   0.31480   0.87527   Biso      1.000     C          -0.23794400000000002          
         C33       1.0000    0.98230   0.49381   0.84106   Biso      1.000     C          -0.202097           
         C34       1.0000    0.09530   0.41237   0.88234   Biso      1.000     C          0.266306  
         C35       1.0000    0.79660   0.50041   0.97080   Biso      1.000     C          -0.16663499999999998          
         C36       1.0000    0.90830   0.41794   0.01200   Biso      1.000     C          -0.003176           
         H1        1.0000    0.69360   0.52990   0.00070   Biso      1.000     H          0.118158  
         H2        1.0000    0.33330   0.24460   0.90610   Biso      1.000     H          0.119199  
         H3        1.0000    0.43310   0.36920   0.91800   Biso      1.000     H          0.12366600000000001           
         H4        1.0000    0.46950   0.29080   0.83190   Biso      1.000     H          0.14114200000000002           
         H5        1.0000    0.80640   0.02990   0.50070   Biso      1.000     H          0.118157  
         H6        1.0000    0.36060   0.82160   0.49620   Biso      1.000     H          0.13353299999999999           
         H7        1.0000    0.49430   0.01800   0.28210   Biso      1.000     H          0.13514400000000001           
         H8        1.0000    0.03050   0.79080   0.33190   Biso      1.000     H          0.14114100000000002           
         H9        1.0000    0.06690   0.86920   0.41800   Biso      1.000     H          0.12366600000000001           
         H10       1.0000    0.16670   0.74460   0.40610   Biso      1.000     H          0.119198  
         H11       1.0000    0.19360   0.52990   0.49930   Biso      1.000     H          0.118158  
         H12       1.0000    0.63940   0.32160   0.50380   Biso      1.000     H          0.13353299999999999           
         H13       1.0000    0.50570   0.51800   0.71790   Biso      1.000     H          0.13514500000000002           
         H14       1.0000    0.96950   0.29080   0.66810   Biso      1.000     H          0.14114100000000002           
         H15       1.0000    0.00570   0.51800   0.78210   Biso      1.000     H          0.13514500000000002           
         H16       1.0000    0.83330   0.24460   0.59390   Biso      1.000     H          0.119199  
         H17       1.0000    0.30640   0.02990   0.99930   Biso      1.000     H          0.118157  
         H18       1.0000    0.86060   0.82160   0.00380   Biso      1.000     H          0.13353299999999999           
         H19       1.0000    0.99430   0.01800   0.21790   Biso      1.000     H          0.13514400000000001           
         H20       1.0000    0.53050   0.79080   0.16810   Biso      1.000     H          0.14114100000000002           
         H21       1.0000    0.56690   0.86920   0.08200   Biso      1.000     H          0.12366600000000001           
         H22       1.0000    0.66670   0.74460   0.09390   Biso      1.000     H          0.119198  
         H23       1.0000    0.13940   0.32160   0.99620   Biso      1.000     H          0.13353399999999999           
         H24       1.0000    0.93310   0.36920   0.58200   Biso      1.000     H          0.12366600000000001           
         Mn1       1.0000    0.53531   0.28615   0.22059   Biso      1.000     Mn          1.02815   
         Mn2       1.0000    0.96469   0.78615   0.72059   Biso      1.000     Mn          1.028146  
         Mn3       1.0000    0.03531   0.28615   0.27941   Biso      1.000     Mn          1.028157  
         Mn4       1.0000    0.46469   0.78615   0.77941   Biso      1.000     Mn          1.02815   
         O1        1.0000    0.70239   0.37057   0.12475   Biso      1.000     O          -0.575209           
         O2        1.0000    0.57962   0.66532   0.87936   Biso      1.000     O          -0.5191720000000001           
         O3        1.0000    0.76169   0.66835   0.76589   Biso      1.000     O          -0.594409           
         O4        1.0000    0.76321   0.87173   0.16780   Biso      1.000     O          -0.163706           
         O5        1.0000    0.00775   0.82510   0.85535   Biso      1.000     O          -0.587454           
         O6        1.0000    0.29761   0.87057   0.87525   Biso      1.000     O          -0.5752079999999999           
         O7        1.0000    0.42038   0.16532   0.12064   Biso      1.000     O          -0.519171           
         O8        1.0000    0.23831   0.16835   0.23411   Biso      1.000     O          -0.594411           
         O9        1.0000    0.73679   0.37173   0.66780   Biso      1.000     O          -0.163705           
         O10       1.0000    0.49225   0.32510   0.35535   Biso      1.000     O          -0.587454           
         O11       1.0000    0.20239   0.37057   0.37525   Biso      1.000     O          -0.575209           
         O12       1.0000    0.07962   0.66532   0.62064   Biso      1.000     O          -0.5191720000000001           
         O13       1.0000    0.26169   0.66835   0.73411   Biso      1.000     O          -0.59441  
         O14       1.0000    0.26321   0.87173   0.33220   Biso      1.000     O          -0.163706           
         O15       1.0000    0.50775   0.82510   0.64465   Biso      1.000     O          -0.5874550000000001           
         O16       1.0000    0.79761   0.87057   0.62475   Biso      1.000     O          -0.5752079999999999           
         O17       1.0000    0.92038   0.16532   0.37936   Biso      1.000     O          -0.519173           
         O18       1.0000    0.73831   0.16835   0.26589   Biso      1.000     O          -0.594411           
         O19       1.0000    0.99225   0.32510   0.14465   Biso      1.000     O          -0.5874550000000001           
         O20       1.0000    0.23679   0.37173   0.83220   Biso      1.000     O          -0.163705 