
##########################################################################
#               Crystallographic Information Format file
#               Produced by PyCifRW module
#
#  This is a CIF file.  CIF has been adopted by the International
#  Union of Crystallography as the standard for data archiving and
#  transmission.
#
#  For information on this file format, follow the CIF links at
#  http://www.iucr.org
##########################################################################

data_image0

_cell_length_a                          11.9339
_cell_length_b                          12.4369
_cell_length_c                          17.9627
_cell_angle_alpha                       90
_cell_angle_beta                        104.051
_cell_angle_gamma                       90
_symmetry_space_group_name_H-M          'P 1'
_symmetry_int_tables_number             1
loop_
  _symmetry_equiv_pos_as_xyz
         'x, y, z' 
loop_
  _atom_site_label
  _atom_site_occupancy
  _atom_site_fract_x
  _atom_site_fract_y
  _atom_site_fract_z
  _atom_site_thermal_displace_type
  _atom_site_B_iso_or_equiv
  _atom_site_type_symbol
  _atom_site_charge
         C1        1.0000    0.08430   0.57530   0.52060   Biso      1.000     C          0.165318  
         C2        1.0000    0.94060   0.05480   0.14500   Biso      1.000     C          0.682884  
         C3        1.0000    0.41570   0.07530   0.97940   Biso      1.000     C          0.165318  
         C4        1.0000    0.44090   0.03230   0.05280   Biso      1.000     C          0.171292  
         C5        1.0000    0.52640   0.95500   0.07420   Biso      1.000     C          -0.22199899999999997          
         C6        1.0000    0.55360   0.90590   0.15410   Biso      1.000     C          0.6721520000000001  
         C7        1.0000    0.40330   0.41610   0.84240   Biso      1.000     C          0.644791  
         C8        1.0000    0.97070   0.02540   0.06990   Biso      1.000     C          -0.21419000000000002          
         C9        1.0000    0.53070   0.32820   0.04560   Biso      1.000     C          0.171267  
         C10       1.0000    0.49330   0.38720   0.91450   Biso      1.000     C          -0.208579           
         C11       1.0000    0.60810   0.36720   0.91710   Biso      1.000     C          0.162098  
         C12       1.0000    0.68380   0.33090   0.98240   Biso      1.000     C          0.176706  
         C13       1.0000    0.64730   0.30810   0.04870   Biso      1.000     C          -0.21023499999999998          
         C14       1.0000    0.60770   0.53710   0.50060   Biso      1.000     C          0.163157  
         C15       1.0000    0.58040   0.51190   0.56760   Biso      1.000     C          0.166916  
         C16       1.0000    0.45930   0.36980   0.98090   Biso      1.000     C          0.146283  
         C17       1.0000    0.47070   0.47460   0.56990   Biso      1.000     C          -0.21419000000000002          
         C18       1.0000    0.08040   0.98810   0.06760   Biso      1.000     C          0.166906  
         C19       1.0000    0.85270   0.80810   0.45130   Biso      1.000     C          -0.21023499999999998          
         C20       1.0000    0.39230   0.46290   0.49940   Biso      1.000     C          0.163157  
         C21       1.0000    0.41960   0.48810   0.43240   Biso      1.000     C          0.166915  
         C22       1.0000    0.52930   0.52540   0.43010   Biso      1.000     C          -0.21419000000000002          
         C23       1.0000    0.55940   0.55480   0.35500   Biso      1.000     C          0.682884  
         C24       1.0000    0.05910   0.53230   0.44720   Biso      1.000     C          0.171292  
         C25       1.0000    0.97360   0.45500   0.42580   Biso      1.000     C          -0.22199899999999997          
         C26       1.0000    0.10770   0.96290   0.00060   Biso      1.000     C          0.163166  
         C27       1.0000    0.94640   0.40590   0.34590   Biso      1.000     C          0.6721520000000001  
         C28       1.0000    0.77520   0.75740   0.38190   Biso      1.000     C          0.692006  
         C29       1.0000    0.96930   0.82820   0.45440   Biso      1.000     C          0.171268  
         C30       1.0000    0.04070   0.86980   0.51910   Biso      1.000     C          0.146276  
         C31       1.0000    0.00670   0.88720   0.58550   Biso      1.000     C          -0.20857199999999998          
         C32       1.0000    0.89190   0.86720   0.58290   Biso      1.000     C          0.162097  
         C33       1.0000    0.81620   0.83090   0.51760   Biso      1.000     C          0.176706  
         C34       1.0000    0.09670   0.91610   0.65760   Biso      1.000     C          0.644791  
         C35       1.0000    0.44060   0.44520   0.64500   Biso      1.000     C          0.682884  
         C36       1.0000    0.72480   0.25740   0.11810   Biso      1.000     C          0.692006  
         C37       1.0000    0.94090   0.46770   0.55280   Biso      1.000     C          0.171291  
         C38       1.0000    0.91570   0.42470   0.47940   Biso      1.000     C          0.165322  
         C39       1.0000    0.35270   0.69190   0.95130   Biso      1.000     C          -0.21023499999999998          
         C40       1.0000    0.31620   0.66910   0.01760   Biso      1.000     C          0.176702  
         C41       1.0000    0.39190   0.63280   0.08290   Biso      1.000     C          0.1621    
         C42       1.0000    0.50670   0.61280   0.08550   Biso      1.000     C          -0.208575           
         C43       1.0000    0.54070   0.63020   0.01910   Biso      1.000     C          0.146274  
         C44       1.0000    0.46930   0.67180   0.95440   Biso      1.000     C          0.171275  
         C45       1.0000    0.27520   0.74260   0.88190   Biso      1.000     C          0.692006  
         C46       1.0000    0.44640   0.09410   0.84590   Biso      1.000     C          0.672151  
         C47       1.0000    0.47360   0.04500   0.92580   Biso      1.000     C          -0.221993           
         C48       1.0000    0.55910   0.96770   0.94720   Biso      1.000     C          0.171291  
         C49       1.0000    0.58430   0.92470   0.02060   Biso      1.000     C          0.165322  
         C50       1.0000    0.05940   0.94520   0.85500   Biso      1.000     C          0.682884  
         C51       1.0000    0.59670   0.58390   0.15760   Biso      1.000     C          0.644791  
         C52       1.0000    0.91960   0.01190   0.93240   Biso      1.000     C          0.166906  
         C53       1.0000    0.02930   0.97460   0.93010   Biso      1.000     C          -0.21419000000000002          
         C54       1.0000    0.05360   0.59410   0.65410   Biso      1.000     C          0.672151  
         C55       1.0000    0.90330   0.08390   0.34240   Biso      1.000     C          0.64479   
         C56       1.0000    0.22480   0.24260   0.61810   Biso      1.000     C          0.692006  
         C57       1.0000    0.03070   0.17180   0.54560   Biso      1.000     C          0.171268  
         C58       1.0000    0.95930   0.13020   0.48090   Biso      1.000     C          0.146276  
         C59       1.0000    0.02640   0.54500   0.57420   Biso      1.000     C          -0.221993           
         C60       1.0000    0.10810   0.13280   0.41710   Biso      1.000     C          0.16209500000000002           
         C61       1.0000    0.18380   0.16910   0.48240   Biso      1.000     C          0.176706  
         C62       1.0000    0.14730   0.19190   0.54870   Biso      1.000     C          -0.21023499999999998          
         C63       1.0000    0.89230   0.03710   0.99940   Biso      1.000     C          0.163166  
         C64       1.0000    0.99330   0.11280   0.41450   Biso      1.000     C          -0.208569           
         F1        1.0000    0.83180   0.34910   0.46150   Biso      1.000     F          -0.10342  
         F2        1.0000    0.88290   0.43270   0.60356   Biso      1.000     F          -0.10244400000000001          
         F3        1.0000    0.98900   0.19160   0.60700   Biso      1.000     F          -0.092286           
         F4        1.0000    0.84760   0.11070   0.48240   Biso      1.000     F          -0.116578           
         F5        1.0000    0.14680   0.12030   0.35253   Biso      1.000     F          -0.10745199999999999          
         F6        1.0000    0.29460   0.18680   0.48070   Biso      1.000     F          -0.105761           
         F7        1.0000    0.84000   0.02830   0.86570   Biso      1.000     F          -0.11000499999999999          
         F8        1.0000    0.66820   0.84910   0.03850   Biso      1.000     F          -0.10342  
         F9        1.0000    0.61710   0.93270   0.89644   Biso      1.000     F          -0.10244400000000001          
         F10       1.0000    0.51100   0.69160   0.89300   Biso      1.000     F          -0.092287           
         F11       1.0000    0.65240   0.61070   0.01760   Biso      1.000     F          -0.116578           
         F12       1.0000    0.66000   0.52830   0.63430   Biso      1.000     F          -0.11000599999999999          
         F13       1.0000    0.78630   0.07700   0.99760   Biso      1.000     F          -0.11186099999999999          
         F14       1.0000    0.71370   0.57700   0.50240   Biso      1.000     F          -0.11185999999999999          
         F15       1.0000    0.21370   0.92300   0.00240   Biso      1.000     F          -0.11186099999999999          
         F16       1.0000    0.64680   0.37970   0.85253   Biso      1.000     F          -0.10745199999999999          
         F17       1.0000    0.34760   0.38930   0.98240   Biso      1.000     F          -0.116579           
         F18       1.0000    0.48900   0.30840   0.10700   Biso      1.000     F          -0.092286           
         F19       1.0000    0.38290   0.06730   0.10356   Biso      1.000     F          -0.10244400000000001          
         F20       1.0000    0.33180   0.15090   0.96150   Biso      1.000     F          -0.10342  
         F21       1.0000    0.16820   0.65090   0.53850   Biso      1.000     F          -0.10342  
         F22       1.0000    0.11710   0.56730   0.39644   Biso      1.000     F          -0.10244400000000001          
         F23       1.0000    0.01100   0.80840   0.39300   Biso      1.000     F          -0.092286           
         F24       1.0000    0.15240   0.88930   0.51760   Biso      1.000     F          -0.116578           
         F25       1.0000    0.16000   0.97170   0.13430   Biso      1.000     F          -0.11000499999999999          
         F26       1.0000    0.85320   0.87970   0.64747   Biso      1.000     F          -0.10745199999999999          
         F27       1.0000    0.70540   0.81320   0.51930   Biso      1.000     F          -0.105761           
         F28       1.0000    0.35320   0.62030   0.14747   Biso      1.000     F          -0.10745199999999999          
         F29       1.0000    0.79460   0.31320   0.98070   Biso      1.000     F          -0.105761           
         F30       1.0000    0.20540   0.68680   0.01930   Biso      1.000     F          -0.105761           
         F31       1.0000    0.28630   0.42300   0.49760   Biso      1.000     F          -0.11185999999999999          
         F32       1.0000    0.34000   0.47170   0.36570   Biso      1.000     F          -0.11000599999999999          
         O1        1.0000    0.00480   0.12370   0.18360   Biso      1.000     O          -0.579255           
         O2        1.0000    0.31920   0.82260   0.85640   Biso      1.000     O          -0.567392           
         O3        1.0000    0.17670   0.70280   0.85600   Biso      1.000     O          -0.557453           
         O4        1.0000    0.64160   0.49420   0.16570   Biso      1.000     O          -0.47564700000000004          
         O5        1.0000    0.62840   0.65960   0.20650   Biso      1.000     O          -0.60405  
         O6        1.0000    0.35460   0.06900   0.79850   Biso      1.000     O          -0.541291           
         O7        1.0000    0.51710   0.15950   0.83100   Biso      1.000     O          -0.512641           
         O8        1.0000    0.14650   0.98970   0.84310   Biso      1.000     O          -0.545187           
         O9        1.0000    0.99520   0.87630   0.81640   Biso      1.000     O          -0.579255           
         O10       1.0000    0.18080   0.32260   0.64360   Biso      1.000     O          -0.567392           
         O11       1.0000    0.32330   0.20280   0.64400   Biso      1.000     O          -0.557453           
         O12       1.0000    0.85350   0.01030   0.15690   Biso      1.000     O          -0.545187           
         O13       1.0000    0.87160   0.15960   0.29350   Biso      1.000     O          -0.60405  
         O14       1.0000    0.14540   0.56900   0.70150   Biso      1.000     O          -0.541291           
         O15       1.0000    0.98290   0.65950   0.66900   Biso      1.000     O          -0.512641           
         O16       1.0000    0.85840   0.99420   0.33430   Biso      1.000     O          -0.47564700000000004          
         O17       1.0000    0.50480   0.37630   0.68360   Biso      1.000     O          -0.579255           
         O18       1.0000    0.81920   0.67740   0.35640   Biso      1.000     O          -0.567392           
         O19       1.0000    0.67670   0.79720   0.35600   Biso      1.000     O          -0.557453           
         O20       1.0000    0.14160   0.00580   0.66570   Biso      1.000     O          -0.475646           
         O21       1.0000    0.35350   0.48970   0.65690   Biso      1.000     O          -0.545187           
         O22       1.0000    0.85460   0.43100   0.29850   Biso      1.000     O          -0.541291           
         O23       1.0000    0.01710   0.34050   0.33100   Biso      1.000     O          -0.512641           
         O24       1.0000    0.64650   0.51030   0.34310   Biso      1.000     O          -0.545187           
         O25       1.0000    0.12840   0.84040   0.70650   Biso      1.000     O          -0.604051           
         O26       1.0000    0.48290   0.84050   0.16900   Biso      1.000     O          -0.512641           
         O27       1.0000    0.64540   0.93100   0.20150   Biso      1.000     O          -0.541291           
         O28       1.0000    0.37160   0.34040   0.79350   Biso      1.000     O          -0.60405  
         O29       1.0000    0.35840   0.50580   0.83430   Biso      1.000     O          -0.47564700000000004          
         O30       1.0000    0.82330   0.29720   0.14400   Biso      1.000     O          -0.557453           
         O31       1.0000    0.68080   0.17740   0.14360   Biso      1.000     O          -0.567392           
         O32       1.0000    0.49520   0.62370   0.31640   Biso      1.000     O          -0.579255           
         Zn1       1.0000    0.75640   0.56295   0.27874   Biso      1.000     Zn          1.009665  
         Zn2       1.0000    0.54609   0.75834   0.26826   Biso      1.000     Zn          1.063187  
         Zn3       1.0000    0.74360   0.06295   0.22126   Biso      1.000     Zn          1.009665  
         Zn4       1.0000    0.95391   0.25834   0.23174   Biso      1.000     Zn          1.063187  
         Zn5       1.0000    0.24360   0.43705   0.72126   Biso      1.000     Zn          1.009664  
         Zn6       1.0000    0.45391   0.24166   0.73174   Biso      1.000     Zn          1.063188  
         Zn7       1.0000    0.25640   0.93705   0.77874   Biso      1.000     Zn          1.009665  
         Zn8       1.0000    0.04609   0.74166   0.76826   Biso      1.000     Zn          1.063188 