
##########################################################################
#               Crystallographic Information Format file
#               Produced by PyCifRW module
#
#  This is a CIF file.  CIF has been adopted by the International
#  Union of Crystallography as the standard for data archiving and
#  transmission.
#
#  For information on this file format, follow the CIF links at
#  http://www.iucr.org
##########################################################################

data_image0

_cell_length_a                          9.4391
_cell_length_b                          16.2024
_cell_length_c                          23.9864
_cell_angle_alpha                       108.354
_cell_angle_beta                        90
_cell_angle_gamma                       90
_symmetry_space_group_name_H-M          'P 1'
_symmetry_int_tables_number             1
loop_
  _symmetry_equiv_pos_as_xyz
         'x, y, z' 
loop_
  _atom_site_label
  _atom_site_occupancy
  _atom_site_fract_x
  _atom_site_fract_y
  _atom_site_fract_z
  _atom_site_thermal_displace_type
  _atom_site_B_iso_or_equiv
  _atom_site_type_symbol
  _atom_site_charge
         C1        1.0000    0.30680   0.11970   0.04100   Biso      1.000     C          0.636452  
         C2        1.0000    0.56950   0.20420   0.20140   Biso      1.000     C          0.13967100000000002           
         C3        1.0000    0.68120   0.16890   0.15450   Biso      1.000     C          0.562664  
         C4        1.0000    0.41300   0.10840   0.99320   Biso      1.000     C          0.101979  
         C5        1.0000    0.42060   0.03550   0.94400   Biso      1.000     C          -0.138283           
         C6        1.0000    0.52330   0.03110   0.90240   Biso      1.000     C          -0.005135           
         C7        1.0000    0.61640   0.10000   0.91110   Biso      1.000     C          -0.150231           
         C8        1.0000    0.60320   0.17050   0.96090   Biso      1.000     C          0.131146  
         C9        1.0000    0.69630   0.24950   0.97420   Biso      1.000     C          0.552891  
         C10       1.0000    0.29810   0.46810   0.66180   Biso      1.000     C          0.5948869999999999  
         C11       1.0000    0.39690   0.50690   0.62780   Biso      1.000     C          0.126694  
         C12       1.0000    0.38550   0.59100   0.62620   Biso      1.000     C          -0.134927           
         C13       1.0000    0.47980   0.61940   0.59250   Biso      1.000     C          -0.008320999999999999         
         C14       1.0000    0.58350   0.56370   0.56160   Biso      1.000     C          -0.14193599999999998          
         C15       1.0000    0.55220   0.17490   0.24930   Biso      1.000     C          -0.14888099999999999          
         C16       1.0000    0.58660   0.47950   0.56530   Biso      1.000     C          0.106999  
         C17       1.0000    0.61950   0.29720   0.72930   Biso      1.000     C          0.13265   
         C18       1.0000    0.64450   0.27050   0.77760   Biso      1.000     C          -0.13869  
         C19       1.0000    0.55610   0.21040   0.78820   Biso      1.000     C          -0.0338   
         C20       1.0000    0.44780   0.17490   0.74930   Biso      1.000     C          -0.14887899999999998          
         C21       1.0000    0.43050   0.20420   0.70140   Biso      1.000     C          0.13967000000000002           
         C22       1.0000    0.31880   0.16890   0.65450   Biso      1.000     C          0.562664  
         C23       1.0000    0.69320   0.11970   0.54100   Biso      1.000     C          0.636452  
         C24       1.0000    0.58700   0.10840   0.49320   Biso      1.000     C          0.101979  
         C25       1.0000    0.57940   0.03550   0.44400   Biso      1.000     C          -0.138283           
         C26       1.0000    0.47670   0.03110   0.40240   Biso      1.000     C          -0.005135           
         C27       1.0000    0.38360   0.10000   0.41110   Biso      1.000     C          -0.150231           
         C28       1.0000    0.39680   0.17050   0.46090   Biso      1.000     C          0.131146  
         C29       1.0000    0.30370   0.24950   0.47420   Biso      1.000     C          0.552891  
         C30       1.0000    0.70960   0.36350   0.71320   Biso      1.000     C          0.616456  
         C31       1.0000    0.44390   0.21040   0.28820   Biso      1.000     C          -0.033807           
         C32       1.0000    0.35550   0.27050   0.27760   Biso      1.000     C          -0.138684           
         C33       1.0000    0.38050   0.29720   0.22930   Biso      1.000     C          0.132652  
         C34       1.0000    0.70190   0.53190   0.33820   Biso      1.000     C          0.5948869999999999  
         C35       1.0000    0.60310   0.49310   0.37220   Biso      1.000     C          0.126694  
         C36       1.0000    0.61450   0.40900   0.37380   Biso      1.000     C          -0.134927           
         C37       1.0000    0.52020   0.38060   0.40750   Biso      1.000     C          -0.008320999999999999         
         C38       1.0000    0.41650   0.43630   0.43840   Biso      1.000     C          -0.14193599999999998          
         C39       1.0000    0.41340   0.52050   0.43470   Biso      1.000     C          0.106999  
         C40       1.0000    0.30700   0.58840   0.46780   Biso      1.000     C          0.6348    
         C41       1.0000    0.29040   0.63650   0.28680   Biso      1.000     C          0.6164569999999999  
         C42       1.0000    0.38050   0.70280   0.27070   Biso      1.000     C          0.13265   
         C43       1.0000    0.35550   0.72950   0.22240   Biso      1.000     C          -0.13869  
         C44       1.0000    0.44390   0.78960   0.21180   Biso      1.000     C          -0.0338   
         C45       1.0000    0.55220   0.82510   0.25070   Biso      1.000     C          -0.14887899999999998          
         C46       1.0000    0.56950   0.79580   0.29860   Biso      1.000     C          0.13967000000000002           
         C47       1.0000    0.68120   0.83110   0.34550   Biso      1.000     C          0.562664  
         C48       1.0000    0.30680   0.88030   0.45900   Biso      1.000     C          0.636452  
         C49       1.0000    0.41300   0.89160   0.50680   Biso      1.000     C          0.101979  
         C50       1.0000    0.42060   0.96450   0.55600   Biso      1.000     C          -0.138283           
         C51       1.0000    0.52330   0.96890   0.59760   Biso      1.000     C          -0.005135           
         C52       1.0000    0.61640   0.90000   0.58890   Biso      1.000     C          -0.15023  
         C53       1.0000    0.60320   0.82950   0.53910   Biso      1.000     C          0.131146  
         C54       1.0000    0.69630   0.75050   0.52580   Biso      1.000     C          0.552891  
         C55       1.0000    0.70190   0.46810   0.16180   Biso      1.000     C          0.5948869999999999  
         C56       1.0000    0.60310   0.50690   0.12780   Biso      1.000     C          0.126694  
         C57       1.0000    0.61450   0.59100   0.12620   Biso      1.000     C          -0.134927           
         C58       1.0000    0.52020   0.61940   0.09250   Biso      1.000     C          -0.008320999999999999         
         C59       1.0000    0.41650   0.56370   0.06160   Biso      1.000     C          -0.14193599999999998          
         C60       1.0000    0.41340   0.47950   0.06530   Biso      1.000     C          0.106999  
         C61       1.0000    0.30700   0.41160   0.03220   Biso      1.000     C          0.6348    
         C62       1.0000    0.29040   0.36350   0.21320   Biso      1.000     C          0.616456  
         C63       1.0000    0.29810   0.53190   0.83820   Biso      1.000     C          0.5948869999999999  
         C64       1.0000    0.39690   0.49310   0.87220   Biso      1.000     C          0.126694  
         C65       1.0000    0.69300   0.41160   0.53220   Biso      1.000     C          0.6348    
         C66       1.0000    0.47980   0.38060   0.90750   Biso      1.000     C          -0.008326           
         C67       1.0000    0.30370   0.75050   0.02580   Biso      1.000     C          0.552891  
         C68       1.0000    0.39680   0.82950   0.03910   Biso      1.000     C          0.13114   
         C69       1.0000    0.38550   0.40900   0.87380   Biso      1.000     C          -0.13492200000000001          
         C70       1.0000    0.38360   0.90000   0.08890   Biso      1.000     C          -0.150224           
         C71       1.0000    0.47670   0.96890   0.09760   Biso      1.000     C          -0.005139           
         C72       1.0000    0.57940   0.96450   0.05600   Biso      1.000     C          -0.138281           
         C73       1.0000    0.58700   0.89160   0.00680   Biso      1.000     C          0.10198   
         C74       1.0000    0.69320   0.88030   0.95900   Biso      1.000     C          0.6364529999999999  
         C75       1.0000    0.31880   0.83110   0.84550   Biso      1.000     C          0.562664  
         C76       1.0000    0.44780   0.82510   0.75070   Biso      1.000     C          -0.14888099999999999          
         C77       1.0000    0.55610   0.78960   0.71180   Biso      1.000     C          -0.033807           
         C78       1.0000    0.64450   0.72950   0.72240   Biso      1.000     C          -0.138684           
         C79       1.0000    0.61950   0.70280   0.77070   Biso      1.000     C          0.132651  
         C80       1.0000    0.70960   0.63650   0.78680   Biso      1.000     C          0.616456  
         C81       1.0000    0.69300   0.58840   0.96780   Biso      1.000     C          0.6348    
         C82       1.0000    0.58660   0.52050   0.93470   Biso      1.000     C          0.106998  
         C83       1.0000    0.58350   0.43630   0.93840   Biso      1.000     C          -0.14193499999999998          
         C84       1.0000    0.43050   0.79580   0.79860   Biso      1.000     C          0.13967000000000002           
         Ca1       1.0000    0.00000   0.00000   0.50000   Biso      1.000     Ca          1.646855  
         Ca2       1.0000    0.00000   0.00000   0.00000   Biso      1.000     Ca          1.646855  
         Ca3       1.0000    0.99768   0.50000   0.25000   Biso      1.000     Ca          1.518116  
         Ca4       1.0000    0.00000   0.50000   0.00000   Biso      1.000     Ca          1.638291  
         Ca5       1.0000    0.00232   0.50000   0.75000   Biso      1.000     Ca          1.518116  
         Ca6       1.0000    0.00000   0.50000   0.50000   Biso      1.000     Ca          1.638291  
         H1        1.0000    0.56880   0.19350   0.82150   Biso      1.000     H          0.10538399999999999           
         H2        1.0000    0.38830   0.13260   0.75510   Biso      1.000     H          0.135097  
         H3        1.0000    0.64300   0.98990   0.43910   Biso      1.000     H          0.118495  
         H4        1.0000    0.46990   0.98260   0.36910   Biso      1.000     H          0.117407  
         H5        1.0000    0.31330   0.09870   0.38360   Biso      1.000     H          0.131009  
         H6        1.0000    0.31520   0.37210   0.85250   Biso      1.000     H          0.130937  
         H7        1.0000    0.64930   0.41830   0.96100   Biso      1.000     H          0.117122  
         H8        1.0000    0.56880   0.80650   0.67850   Biso      1.000     H          0.10538499999999999           
         H9        1.0000    0.38830   0.86740   0.74490   Biso      1.000     H          0.135097  
         H10       1.0000    0.64300   0.01010   0.06090   Biso      1.000     H          0.118495  
         H11       1.0000    0.46990   0.01740   0.13090   Biso      1.000     H          0.117407  
         H12       1.0000    0.31330   0.90130   0.11640   Biso      1.000     H          0.131009  
         H13       1.0000    0.72040   0.29300   0.80250   Biso      1.000     H          0.12941   
         H14       1.0000    0.72040   0.70700   0.69750   Biso      1.000     H          0.129409  
         H15       1.0000    0.64930   0.58170   0.53900   Biso      1.000     H          0.117122  
         H16       1.0000    0.47380   0.32430   0.90930   Biso      1.000     H          0.116226  
         H17       1.0000    0.31520   0.62790   0.64750   Biso      1.000     H          0.130938  
         H18       1.0000    0.68480   0.37210   0.35250   Biso      1.000     H          0.130938  
         H19       1.0000    0.52620   0.32430   0.40930   Biso      1.000     H          0.116226  
         H20       1.0000    0.35070   0.41830   0.46100   Biso      1.000     H          0.117122  
         H21       1.0000    0.27960   0.70700   0.19750   Biso      1.000     H          0.12941   
         H22       1.0000    0.43120   0.80650   0.17850   Biso      1.000     H          0.10538399999999999           
         H23       1.0000    0.61170   0.86740   0.24490   Biso      1.000     H          0.135097  
         H24       1.0000    0.53010   0.01740   0.63090   Biso      1.000     H          0.117407  
         H25       1.0000    0.68670   0.90130   0.61640   Biso      1.000     H          0.131009  
         H26       1.0000    0.68480   0.62790   0.14750   Biso      1.000     H          0.130938  
         H27       1.0000    0.35700   0.01010   0.56090   Biso      1.000     H          0.118495  
         H28       1.0000    0.52620   0.67570   0.09070   Biso      1.000     H          0.116226  
         H29       1.0000    0.35070   0.58170   0.03900   Biso      1.000     H          0.117122  
         H30       1.0000    0.27960   0.29300   0.30250   Biso      1.000     H          0.129409  
         H31       1.0000    0.43120   0.19350   0.32150   Biso      1.000     H          0.10538499999999999           
         H32       1.0000    0.61170   0.13260   0.25510   Biso      1.000     H          0.135097  
         H33       1.0000    0.35700   0.98990   0.93910   Biso      1.000     H          0.118495  
         H34       1.0000    0.53010   0.98260   0.86910   Biso      1.000     H          0.117407  
         H35       1.0000    0.68670   0.09870   0.88360   Biso      1.000     H          0.131009  
         H36       1.0000    0.47380   0.67570   0.59070   Biso      1.000     H          0.116226  
         N1        1.0000    0.49520   0.45250   0.59660   Biso      1.000     N          -0.330514           
         N2        1.0000    0.48500   0.73560   0.30815   Biso      1.000     N          -0.348288           
         N3        1.0000    0.50500   0.82570   0.49820   Biso      1.000     N          -0.339904           
         N4        1.0000    0.50480   0.45250   0.09660   Biso      1.000     N          -0.330514           
         N5        1.0000    0.48500   0.26440   0.19185   Biso      1.000     N          -0.348288           
         N6        1.0000    0.50500   0.17430   0.00180   Biso      1.000     N          -0.339904           
         N7        1.0000    0.50480   0.54750   0.40340   Biso      1.000     N          -0.330514           
         N8        1.0000    0.51500   0.26440   0.69185   Biso      1.000     N          -0.348288           
         N9        1.0000    0.49520   0.54750   0.90340   Biso      1.000     N          -0.330514           
         N10       1.0000    0.51500   0.73560   0.80815   Biso      1.000     N          -0.348288           
         N11       1.0000    0.49500   0.82570   0.99820   Biso      1.000     N          -0.339904           
         N12       1.0000    0.49500   0.17430   0.50180   Biso      1.000     N          -0.339904           
         O1        1.0000    0.20030   0.51330   0.69018   Biso      1.000     O          -0.6564770000000001           
         O2        1.0000    0.67980   0.30530   0.02498   Biso      1.000     O          -0.672507           
         O3        1.0000    0.77940   0.25630   0.93620   Biso      1.000     O          -0.601196           
         O4        1.0000    0.32340   0.18570   0.08598   Biso      1.000     O          -0.58931  
         O5        1.0000    0.21150   0.06470   0.03469   Biso      1.000     O          -0.739113           
         O6        1.0000    0.67300   0.19460   0.10996   Biso      1.000     O          -0.67285  
         O7        1.0000    0.76810   0.11640   0.16180   Biso      1.000     O          -0.601422           
         O8        1.0000    0.19570   0.40200   0.24759   Biso      1.000     O          -0.659143           
         O9        1.0000    0.31880   0.37430   0.16466   Biso      1.000     O          -0.643016           
         O10       1.0000    0.32790   0.33580   0.03431   Biso      1.000     O          -0.5926020000000001           
         O11       1.0000    0.20980   0.43370   0.00539   Biso      1.000     O          -0.738838           
         O12       1.0000    0.79970   0.51330   0.19018   Biso      1.000     O          -0.6564770000000001           
         O13       1.0000    0.67980   0.69470   0.47502   Biso      1.000     O          -0.672507           
         O14       1.0000    0.77940   0.74370   0.56380   Biso      1.000     O          -0.601196           
         O15       1.0000    0.32340   0.81430   0.41402   Biso      1.000     O          -0.58931  
         O16       1.0000    0.21150   0.93530   0.46531   Biso      1.000     O          -0.739113           
         O17       1.0000    0.67300   0.80540   0.39004   Biso      1.000     O          -0.67285  
         O18       1.0000    0.76810   0.88360   0.33820   Biso      1.000     O          -0.601422           
         O19       1.0000    0.19570   0.59800   0.25241   Biso      1.000     O          -0.659143           
         O20       1.0000    0.32140   0.38930   0.65803   Biso      1.000     O          -0.616225           
         O21       1.0000    0.31880   0.62570   0.33534   Biso      1.000     O          -0.643016           
         O22       1.0000    0.32790   0.66420   0.46569   Biso      1.000     O          -0.5926020000000001           
         O23       1.0000    0.20980   0.56630   0.49461   Biso      1.000     O          -0.738838           
         O24       1.0000    0.67860   0.38930   0.15803   Biso      1.000     O          -0.616225           
         O25       1.0000    0.79020   0.43370   0.50539   Biso      1.000     O          -0.738837           
         O26       1.0000    0.79970   0.48670   0.30982   Biso      1.000     O          -0.6564770000000001           
         O27       1.0000    0.68120   0.37430   0.66466   Biso      1.000     O          -0.643016           
         O28       1.0000    0.67860   0.61070   0.34197   Biso      1.000     O          -0.616225           
         O29       1.0000    0.32020   0.69470   0.97502   Biso      1.000     O          -0.672507           
         O30       1.0000    0.22060   0.74370   0.06380   Biso      1.000     O          -0.601196           
         O31       1.0000    0.67660   0.81430   0.91402   Biso      1.000     O          -0.58931  
         O32       1.0000    0.78850   0.93530   0.96531   Biso      1.000     O          -0.739113           
         O33       1.0000    0.32700   0.80540   0.89004   Biso      1.000     O          -0.67285  
         O34       1.0000    0.23190   0.88360   0.83820   Biso      1.000     O          -0.601422           
         O35       1.0000    0.80430   0.59800   0.75241   Biso      1.000     O          -0.659143           
         O36       1.0000    0.67210   0.33580   0.53431   Biso      1.000     O          -0.5926020000000001           
         O37       1.0000    0.67210   0.66420   0.96569   Biso      1.000     O          -0.5926020000000001           
         O38       1.0000    0.68120   0.62570   0.83534   Biso      1.000     O          -0.643016           
         O39       1.0000    0.32140   0.61070   0.84197   Biso      1.000     O          -0.616224           
         O40       1.0000    0.20030   0.48670   0.80982   Biso      1.000     O          -0.6564770000000001           
         O41       1.0000    0.32020   0.30530   0.52498   Biso      1.000     O          -0.672507           
         O42       1.0000    0.22060   0.25630   0.43620   Biso      1.000     O          -0.601196           
         O43       1.0000    0.67660   0.18570   0.58598   Biso      1.000     O          -0.58931  
         O44       1.0000    0.78850   0.06470   0.53469   Biso      1.000     O          -0.739112           
         O45       1.0000    0.32700   0.19460   0.60996   Biso      1.000     O          -0.67285  
         O46       1.0000    0.23190   0.11640   0.66180   Biso      1.000     O          -0.601422           
         O47       1.0000    0.80430   0.40200   0.74759   Biso      1.000     O          -0.659143           
         O48       1.0000    0.79020   0.56630   0.99461   Biso      1.000     O          -0.738837           
         Tb1       1.0000    0.50047   0.70184   0.40304   Biso      1.000     Tb          1.8615959999999998  
         Tb2       1.0000    0.50047   0.29816   0.09696   Biso      1.000     Tb          1.8615959999999998  
         Tb3       1.0000    0.49953   0.29816   0.59696   Biso      1.000     Tb          1.8615959999999998  
         Tb4       1.0000    0.49953   0.70184   0.90304   Biso      1.000     Tb          1.8615959999999998 