
##########################################################################
#               Crystallographic Information Format file
#               Produced by PyCifRW module
#
#  This is a CIF file.  CIF has been adopted by the International
#  Union of Crystallography as the standard for data archiving and
#  transmission.
#
#  For information on this file format, follow the CIF links at
#  http://www.iucr.org
##########################################################################

data_image0

_cell_length_a                          6.9041
_cell_length_b                          18.7425
_cell_length_c                          22.4191
_cell_angle_alpha                       90
_cell_angle_beta                        97.687
_cell_angle_gamma                       90
_symmetry_space_group_name_H-M          'P 1'
_symmetry_int_tables_number             1
loop_
  _symmetry_equiv_pos_as_xyz
         'x, y, z' 
loop_
  _atom_site_label
  _atom_site_occupancy
  _atom_site_fract_x
  _atom_site_fract_y
  _atom_site_fract_z
  _atom_site_thermal_displace_type
  _atom_site_B_iso_or_equiv
  _atom_site_type_symbol
  _atom_site_charge
         Ag1       1.0000    0.84383   0.86261   0.57825   Biso      1.000     Ag          0.491675  
         Ag2       1.0000    0.15617   0.13739   0.42175   Biso      1.000     Ag          0.491675  
         Ag3       1.0000    0.65617   0.36261   0.92175   Biso      1.000     Ag          0.491642  
         Ag4       1.0000    0.34383   0.63739   0.07825   Biso      1.000     Ag          0.491642  
         Ag5       1.0000    0.56933   0.94756   0.64514   Biso      1.000     Ag          0.492138  
         Ag6       1.0000    0.43067   0.05244   0.35486   Biso      1.000     Ag          0.492138  
         Ag7       1.0000    0.93067   0.44756   0.85486   Biso      1.000     Ag          0.49215   
         Ag8       1.0000    0.06933   0.55244   0.14514   Biso      1.000     Ag          0.49215   
         Ag9       1.0000    0.46758   0.92752   0.50753   Biso      1.000     Ag          0.417148  
         Ag10      1.0000    0.53242   0.07248   0.49247   Biso      1.000     Ag          0.417148  
         Ag11      1.0000    0.03243   0.42752   0.99248   Biso      1.000     Ag          0.417202  
         Ag12      1.0000    0.96757   0.57248   0.00752   Biso      1.000     Ag          0.417202  
         Ag13      1.0000    0.12883   0.97737   0.55704   Biso      1.000     Ag          0.363844  
         Ag14      1.0000    0.87117   0.02263   0.44296   Biso      1.000     Ag          0.363844  
         Ag15      1.0000    0.37117   0.47737   0.94297   Biso      1.000     Ag          0.363787  
         Ag16      1.0000    0.62883   0.52263   0.05703   Biso      1.000     Ag          0.363788  
         Ag17      1.0000    0.91303   0.13006   0.54539   Biso      1.000     Ag          0.475609  
         Ag18      1.0000    0.08697   0.86994   0.45461   Biso      1.000     Ag          0.475609  
         Ag19      1.0000    0.58696   0.63006   0.95461   Biso      1.000     Ag          0.475565  
         Ag20      1.0000    0.41304   0.36994   0.04539   Biso      1.000     Ag          0.475565  
         Ag21      1.0000    0.90877   0.03335   0.66602   Biso      1.000     Ag          0.526228  
         Ag22      1.0000    0.09123   0.96665   0.33398   Biso      1.000     Ag          0.526228  
         Ag23      1.0000    0.59123   0.53335   0.83398   Biso      1.000     Ag          0.526268  
         Ag24      1.0000    0.40877   0.46665   0.16602   Biso      1.000     Ag          0.526268  
         C1        1.0000    0.74333   0.96744   0.57497   Biso      1.000     C          -0.471635           
         C2        1.0000    0.25667   0.03256   0.42503   Biso      1.000     C          -0.471635           
         C3        1.0000    0.75668   0.46744   0.92503   Biso      1.000     C          -0.471694           
         C4        1.0000    0.24332   0.53256   0.07497   Biso      1.000     C          -0.471694           
         C5        1.0000    0.80951   0.02717   0.55617   Biso      1.000     C          -0.417005           
         C6        1.0000    0.19049   0.97283   0.44383   Biso      1.000     C          -0.417005           
         C7        1.0000    0.69048   0.52716   0.94383   Biso      1.000     C          -0.416986           
         C8        1.0000    0.30952   0.47284   0.05617   Biso      1.000     C          -0.416986           
         C9        1.0000    0.63210   0.98194   0.77570   Biso      1.000     C          0.420161  
         C10       1.0000    0.36790   0.01806   0.22430   Biso      1.000     C          0.420161  
         C11       1.0000    0.86789   0.48194   0.72430   Biso      1.000     C          0.420187  
         C12       1.0000    0.13211   0.51806   0.27570   Biso      1.000     C          0.420187  
         C13       1.0000    0.58478   0.97961   0.84217   Biso      1.000     C          0.579544  
         C14       1.0000    0.41522   0.02039   0.15783   Biso      1.000     C          0.579544  
         C15       1.0000    0.91522   0.47961   0.65783   Biso      1.000     C          0.579526  
         C16       1.0000    0.08478   0.52039   0.34217   Biso      1.000     C          0.579526  
         C17       1.0000    0.92186   0.73023   0.50200   Biso      1.000     C          0.422584  
         C18       1.0000    0.07814   0.26977   0.49800   Biso      1.000     C          0.422584  
         C19       1.0000    0.57814   0.23024   0.99800   Biso      1.000     C          0.422613  
         C20       1.0000    0.42186   0.76976   0.00200   Biso      1.000     C          0.422613  
         C21       1.0000    0.86896   0.64942   0.49220   Biso      1.000     C          0.588125  
         C22       1.0000    0.13104   0.35058   0.50780   Biso      1.000     C          0.588125  
         C23       1.0000    0.63104   0.14942   0.00780   Biso      1.000     C          0.587774  
         C24       1.0000    0.36896   0.85058   0.99220   Biso      1.000     C          0.587774  
         C25       1.0000    0.64026   0.90507   0.38066   Biso      1.000     C          0.53834   
         C26       1.0000    0.35974   0.09493   0.61934   Biso      1.000     C          0.53834   
         C27       1.0000    0.85974   0.40507   0.11934   Biso      1.000     C          0.538331  
         C28       1.0000    0.14026   0.59493   0.88066   Biso      1.000     C          0.538331  
         C29       1.0000    0.54146   0.83808   0.35726   Biso      1.000     C          -0.028718           
         C30       1.0000    0.45854   0.16192   0.64274   Biso      1.000     C          -0.028718           
         C31       1.0000    0.95854   0.33808   0.14274   Biso      1.000     C          -0.028718           
         C32       1.0000    0.04146   0.66192   0.85726   Biso      1.000     C          -0.028718           
         C33       1.0000    0.49847   0.82881   0.29502   Biso      1.000     C          -0.113144           
         C34       1.0000    0.50153   0.17119   0.70498   Biso      1.000     C          -0.113144           
         C35       1.0000    0.00153   0.32881   0.20498   Biso      1.000     C          -0.113131           
         C36       1.0000    0.99847   0.67119   0.79502   Biso      1.000     C          -0.113131           
         C37       1.0000    0.41999   0.76435   0.27178   Biso      1.000     C          -0.093445           
         C38       1.0000    0.58001   0.23565   0.72822   Biso      1.000     C          -0.093445           
         C39       1.0000    0.08001   0.26435   0.22822   Biso      1.000     C          -0.093442           
         C40       1.0000    0.91999   0.73565   0.77178   Biso      1.000     C          -0.093442           
         C41       1.0000    0.37575   0.70988   0.31106   Biso      1.000     C          -0.08362  
         C42       1.0000    0.62425   0.29012   0.68894   Biso      1.000     C          -0.08362  
         C43       1.0000    0.12425   0.20988   0.18894   Biso      1.000     C          -0.083644           
         C44       1.0000    0.87575   0.79012   0.81106   Biso      1.000     C          -0.083644           
         C45       1.0000    0.41012   0.72075   0.37335   Biso      1.000     C          -0.052924           
         C46       1.0000    0.58988   0.27925   0.62665   Biso      1.000     C          -0.052924           
         C47       1.0000    0.08988   0.22075   0.12665   Biso      1.000     C          -0.052932           
         C48       1.0000    0.91012   0.77925   0.87335   Biso      1.000     C          -0.052932           
         C49       1.0000    0.49630   0.78416   0.39662   Biso      1.000     C          -0.060046           
         C50       1.0000    0.50370   0.21584   0.60338   Biso      1.000     C          -0.060046           
         C51       1.0000    0.00370   0.28416   0.10338   Biso      1.000     C          -0.060048           
         C52       1.0000    0.99630   0.71584   0.89662   Biso      1.000     C          -0.060048           
         C53       1.0000    0.38931   0.75065   0.20591   Biso      1.000     C          0.591623  
         C54       1.0000    0.61069   0.24935   0.79409   Biso      1.000     C          0.591623  
         C55       1.0000    0.11069   0.25065   0.29409   Biso      1.000     C          0.591626  
         C56       1.0000    0.88931   0.74935   0.70591   Biso      1.000     C          0.591626  
         C57       1.0000    0.33895   0.81759   0.59406   Biso      1.000     C          0.540463  
         C58       1.0000    0.66105   0.18241   0.40594   Biso      1.000     C          0.540463  
         C59       1.0000    0.16105   0.31759   0.90594   Biso      1.000     C          0.540392  
         C60       1.0000    0.83895   0.68241   0.09406   Biso      1.000     C          0.540392  
         C61       1.0000    0.35642   0.75294   0.63342   Biso      1.000     C          -0.008076           
         C62       1.0000    0.64358   0.24706   0.36658   Biso      1.000     C          -0.008076           
         C63       1.0000    0.14358   0.25295   0.86658   Biso      1.000     C          -0.007702           
         C64       1.0000    0.85642   0.74705   0.13342   Biso      1.000     C          -0.007702           
         C65       1.0000    0.35887   0.68500   0.60733   Biso      1.000     C          -0.040067           
         C66       1.0000    0.64113   0.31500   0.39267   Biso      1.000     C          -0.040067           
         C67       1.0000    0.14113   0.18500   0.89267   Biso      1.000     C          -0.04028  
         C68       1.0000    0.85887   0.81500   0.10733   Biso      1.000     C          -0.04028  
         C69       1.0000    0.37254   0.62448   0.64415   Biso      1.000     C          -0.069798           
         C70       1.0000    0.62746   0.37552   0.35585   Biso      1.000     C          -0.069798           
         C71       1.0000    0.12746   0.12448   0.85585   Biso      1.000     C          -0.069766           
         C72       1.0000    0.87254   0.87552   0.14415   Biso      1.000     C          -0.069766           
         C73       1.0000    0.39427   0.63160   0.70670   Biso      1.000     C          -0.063084           
         C74       1.0000    0.60573   0.36840   0.29330   Biso      1.000     C          -0.063084           
         C75       1.0000    0.10573   0.13160   0.79330   Biso      1.000     C          -0.063099           
         C76       1.0000    0.89427   0.86840   0.20670   Biso      1.000     C          -0.063099           
         C77       1.0000    0.40032   0.70001   0.73302   Biso      1.000     C          -0.097378           
         C78       1.0000    0.59968   0.29999   0.26698   Biso      1.000     C          -0.097378           
         C79       1.0000    0.09968   0.20001   0.76699   Biso      1.000     C          -0.097189           
         C80       1.0000    0.90032   0.79999   0.23301   Biso      1.000     C          -0.097189           
         C81       1.0000    0.37685   0.76059   0.69607   Biso      1.000     C          -0.117174           
         C82       1.0000    0.62315   0.23941   0.30393   Biso      1.000     C          -0.117174           
         C83       1.0000    0.12316   0.26059   0.80394   Biso      1.000     C          -0.117258           
         C84       1.0000    0.87684   0.73941   0.19606   Biso      1.000     C          -0.117258           
         C85       1.0000    0.44028   0.70622   0.79955   Biso      1.000     C          0.586433  
         C86       1.0000    0.55972   0.29378   0.20045   Biso      1.000     C          0.586433  
         C87       1.0000    0.05973   0.20622   0.70046   Biso      1.000     C          0.586112  
         C88       1.0000    0.94027   0.79378   0.29954   Biso      1.000     C          0.586112  
         H1        1.0000    0.53432   0.87233   0.26599   Biso      1.000     H          0.107725  
         H2        1.0000    0.46568   0.12767   0.73401   Biso      1.000     H          0.107725  
         H3        1.0000    0.96568   0.37233   0.23401   Biso      1.000     H          0.107731  
         H4        1.0000    0.03432   0.62767   0.76599   Biso      1.000     H          0.107731  
         H5        1.0000    0.30758   0.66066   0.29188   Biso      1.000     H          0.096699  
         H6        1.0000    0.69242   0.33934   0.70812   Biso      1.000     H          0.096699  
         H7        1.0000    0.19242   0.16066   0.20812   Biso      1.000     H          0.096694  
         H8        1.0000    0.80758   0.83934   0.79188   Biso      1.000     H          0.096694  
         H9        1.0000    0.37015   0.67969   0.40415   Biso      1.000     H          0.117917  
         H10       1.0000    0.62985   0.32031   0.59585   Biso      1.000     H          0.117917  
         H11       1.0000    0.12985   0.17969   0.09585   Biso      1.000     H          0.117917  
         H12       1.0000    0.87015   0.82031   0.90415   Biso      1.000     H          0.117917  
         H13       1.0000    0.52755   0.79236   0.44525   Biso      1.000     H          0.118229  
         H14       1.0000    0.47245   0.20764   0.55475   Biso      1.000     H          0.118229  
         H15       1.0000    0.97245   0.29236   0.05475   Biso      1.000     H          0.118232  
         H16       1.0000    0.02755   0.70764   0.94525   Biso      1.000     H          0.118232  
         H17       1.0000    0.34944   0.68073   0.55833   Biso      1.000     H          0.120018  
         H18       1.0000    0.65056   0.31927   0.44167   Biso      1.000     H          0.120018  
         H19       1.0000    0.15056   0.18073   0.94167   Biso      1.000     H          0.120037  
         H20       1.0000    0.84944   0.81927   0.05833   Biso      1.000     H          0.120037  
         H21       1.0000    0.36842   0.57138   0.62380   Biso      1.000     H          0.11617   
         H22       1.0000    0.63158   0.42862   0.37620   Biso      1.000     H          0.11617   
         H23       1.0000    0.13158   0.07138   0.87620   Biso      1.000     H          0.116171  
         H24       1.0000    0.86842   0.92862   0.12380   Biso      1.000     H          0.116171  
         H25       1.0000    0.40681   0.58419   0.73555   Biso      1.000     H          0.106644  
         H26       1.0000    0.59319   0.41581   0.26445   Biso      1.000     H          0.106644  
         H27       1.0000    0.09319   0.08419   0.76445   Biso      1.000     H          0.106658  
         H28       1.0000    0.90681   0.91581   0.23555   Biso      1.000     H          0.106658  
         H29       1.0000    0.38666   0.81464   0.71484   Biso      1.000     H          0.109216  
         H30       1.0000    0.61334   0.18536   0.28516   Biso      1.000     H          0.109216  
         H31       1.0000    0.11334   0.31464   0.78516   Biso      1.000     H          0.109219  
         H32       1.0000    0.88666   0.68536   0.21484   Biso      1.000     H          0.109219  
         H33       1.0000    0.33805   0.85176   0.18891   Biso      1.000     H          0.370127  
         H34       1.0000    0.66195   0.14824   0.81109   Biso      1.000     H          0.370127  
         H35       1.0000    0.16195   0.35176   0.31109   Biso      1.000     H          0.370127  
         H36       1.0000    0.83805   0.64824   0.68891   Biso      1.000     H          0.370127  
         H37       1.0000    0.32041   0.80005   0.79828   Biso      1.000     H          0.373888  
         H38       1.0000    0.67959   0.19995   0.20172   Biso      1.000     H          0.373888  
         H39       1.0000    0.17960   0.30005   0.70172   Biso      1.000     H          0.373882  
         H40       1.0000    0.82040   0.69995   0.29828   Biso      1.000     H          0.373882  
         H41       1.0000    0.02410   0.93066   0.76086   Biso      1.000     H          0.390957  
         H42       1.0000    0.97590   0.06934   0.23914   Biso      1.000     H          0.390957  
         H43       1.0000    0.47590   0.43066   0.73914   Biso      1.000     H          0.390957  
         H44       1.0000    0.52410   0.56934   0.26086   Biso      1.000     H          0.390957  
         H45       1.0000    0.09202   0.90197   0.70294   Biso      1.000     H          0.38511   
         H46       1.0000    0.90798   0.09803   0.29706   Biso      1.000     H          0.38511   
         H47       1.0000    0.40798   0.40197   0.79707   Biso      1.000     H          0.385054  
         H48       1.0000    0.59202   0.59803   0.20293   Biso      1.000     H          0.385054  
         F1        1.0000    0.63617   0.04137   0.87251   Biso      1.000     F          -0.199855           
         F2        1.0000    0.36383   0.95863   0.12749   Biso      1.000     F          -0.199855           
         F3        1.0000    0.86383   0.54136   0.62749   Biso      1.000     F          -0.199797           
         F4        1.0000    0.13617   0.45864   0.37251   Biso      1.000     F          -0.199797           
         F5        1.0000    0.38968   0.96827   0.84459   Biso      1.000     F          -0.197355           
         F6        1.0000    0.61032   0.03173   0.15541   Biso      1.000     F          -0.197355           
         F7        1.0000    0.11032   0.46827   0.65541   Biso      1.000     F          -0.197377           
         F8        1.0000    0.88968   0.53173   0.34459   Biso      1.000     F          -0.197377           
         F9        1.0000    0.68692   0.92486   0.87354   Biso      1.000     F          -0.205674           
         F10       1.0000    0.31308   0.07514   0.12646   Biso      1.000     F          -0.205674           
         F11       1.0000    0.81309   0.42486   0.62646   Biso      1.000     F          -0.205683           
         F12       1.0000    0.18691   0.57514   0.37354   Biso      1.000     F          -0.205683           
         F13       1.0000    0.73332   0.62698   0.52727   Biso      1.000     F          -0.19254  
         F14       1.0000    0.26668   0.37302   0.47273   Biso      1.000     F          -0.19254  
         F15       1.0000    0.76669   0.12698   0.97273   Biso      1.000     F          -0.192457           
         F16       1.0000    0.23331   0.87302   0.02727   Biso      1.000     F          -0.192457           
         F17       1.0000    0.03398   0.60810   0.50649   Biso      1.000     F          -0.208145           
         F18       1.0000    0.96602   0.39190   0.49351   Biso      1.000     F          -0.208145           
         F19       1.0000    0.46602   0.10810   0.99351   Biso      1.000     F          -0.208075           
         F20       1.0000    0.53398   0.89190   0.00649   Biso      1.000     F          -0.208074           
         F21       1.0000    0.79493   0.63600   0.43350   Biso      1.000     F          -0.207336           
         F22       1.0000    0.20507   0.36400   0.56650   Biso      1.000     F          -0.207336           
         F23       1.0000    0.70506   0.13600   0.06650   Biso      1.000     F          -0.207261           
         F24       1.0000    0.29494   0.86400   0.93350   Biso      1.000     F          -0.207261           
         O1        1.0000    0.56866   0.92805   0.74468   Biso      1.000     O          -0.469292           
         O2        1.0000    0.43134   0.07195   0.25532   Biso      1.000     O          -0.469292           
         O3        1.0000    0.93134   0.42805   0.75532   Biso      1.000     O          -0.469311           
         O4        1.0000    0.06866   0.57195   0.24468   Biso      1.000     O          -0.469311           
         O5        1.0000    0.72919   0.03513   0.76167   Biso      1.000     O          -0.523338           
         O6        1.0000    0.27081   0.96487   0.23833   Biso      1.000     O          -0.523338           
         O7        1.0000    0.77081   0.53513   0.73833   Biso      1.000     O          -0.523343           
         O8        1.0000    0.22919   0.46487   0.26167   Biso      1.000     O          -0.523343           
         O9        1.0000    0.88669   0.75419   0.55200   Biso      1.000     O          -0.443339           
         O10       1.0000    0.11331   0.24581   0.44800   Biso      1.000     O          -0.443339           
         O11       1.0000    0.61331   0.25419   0.94800   Biso      1.000     O          -0.443249           
         O12       1.0000    0.38669   0.74581   0.05200   Biso      1.000     O          -0.443249           
         O13       1.0000    0.99506   0.75983   0.45950   Biso      1.000     O          -0.429915           
         O14       1.0000    0.00494   0.24017   0.54050   Biso      1.000     O          -0.429915           
         O15       1.0000    0.50494   0.25983   0.04050   Biso      1.000     O          -0.429894           
         O16       1.0000    0.49506   0.74017   0.95950   Biso      1.000     O          -0.429894           
         O17       1.0000    0.66881   0.95485   0.34411   Biso      1.000     O          -0.502653           
         O18       1.0000    0.33119   0.04515   0.65589   Biso      1.000     O          -0.502653           
         O19       1.0000    0.83119   0.45485   0.15589   Biso      1.000     O          -0.502663           
         O20       1.0000    0.16881   0.54515   0.84411   Biso      1.000     O          -0.502663           
         O21       1.0000    0.69787   0.91000   0.43821   Biso      1.000     O          -0.54086  
         O22       1.0000    0.30213   0.09000   0.56179   Biso      1.000     O          -0.54086  
         O23       1.0000    0.80213   0.41000   0.06179   Biso      1.000     O          -0.540865           
         O24       1.0000    0.19787   0.59000   0.93821   Biso      1.000     O          -0.540865           
         O25       1.0000    0.35447   0.80638   0.16801   Biso      1.000     O          -0.429778           
         O26       1.0000    0.64553   0.19362   0.83199   Biso      1.000     O          -0.429778           
         O27       1.0000    0.14553   0.30638   0.33199   Biso      1.000     O          -0.429771           
         O28       1.0000    0.85447   0.69362   0.66801   Biso      1.000     O          -0.429771           
         O29       1.0000    0.39803   0.68936   0.18551   Biso      1.000     O          -0.501372           
         O30       1.0000    0.60197   0.31064   0.81449   Biso      1.000     O          -0.501372           
         O31       1.0000    0.10197   0.18936   0.31449   Biso      1.000     O          -0.50137  
         O32       1.0000    0.89803   0.81064   0.68551   Biso      1.000     O          -0.50137  
         O33       1.0000    0.27430   0.87560   0.61676   Biso      1.000     O          -0.556692           
         O34       1.0000    0.72570   0.12440   0.38324   Biso      1.000     O          -0.556692           
         O35       1.0000    0.22570   0.37560   0.88324   Biso      1.000     O          -0.556686           
         O36       1.0000    0.77430   0.62440   0.11676   Biso      1.000     O          -0.556686           
         O37       1.0000    0.39124   0.81257   0.54195   Biso      1.000     O          -0.521952           
         O38       1.0000    0.60876   0.18743   0.45805   Biso      1.000     O          -0.521952           
         O39       1.0000    0.10876   0.31257   0.95805   Biso      1.000     O          -0.521971           
         O40       1.0000    0.89124   0.68743   0.04195   Biso      1.000     O          -0.521971           
         O41       1.0000    0.38692   0.76573   0.82686   Biso      1.000     O          -0.429406           
         O42       1.0000    0.61308   0.23427   0.17314   Biso      1.000     O          -0.429406           
         O43       1.0000    0.11308   0.26574   0.67314   Biso      1.000     O          -0.429472           
         O44       1.0000    0.88692   0.73426   0.32686   Biso      1.000     O          -0.429472           
         O45       1.0000    0.52338   0.65893   0.83229   Biso      1.000     O          -0.466094           
         O46       1.0000    0.47662   0.34107   0.16771   Biso      1.000     O          -0.466094           
         O47       1.0000    0.97662   0.15893   0.66771   Biso      1.000     O          -0.465959           
         O48       1.0000    0.02338   0.84107   0.33229   Biso      1.000     O          -0.465959           
         O49       1.0000    0.09934   0.94430   0.72890   Biso      1.000     O          -0.704869           
         O50       1.0000    0.90066   0.05570   0.27110   Biso      1.000     O          -0.704869           
         O51       1.0000    0.40066   0.44430   0.77110   Biso      1.000     O          -0.704798           
         O52       1.0000    0.59934   0.55570   0.22890   Biso      1.000     O          -0.704798 