
##########################################################################
#               Crystallographic Information Format file
#               Produced by PyCifRW module
#
#  This is a CIF file.  CIF has been adopted by the International
#  Union of Crystallography as the standard for data archiving and
#  transmission.
#
#  For information on this file format, follow the CIF links at
#  http://www.iucr.org
##########################################################################

data_image0

_cell_length_a                          11.477
_cell_length_b                          11.477
_cell_length_c                          22.585
_cell_angle_alpha                       90
_cell_angle_beta                        90
_cell_angle_gamma                       120
_symmetry_space_group_name_H-M          'P 1'
_symmetry_int_tables_number             1
loop_
  _symmetry_equiv_pos_as_xyz
         'x, y, z' 
loop_
  _atom_site_label
  _atom_site_occupancy
  _atom_site_fract_x
  _atom_site_fract_y
  _atom_site_fract_z
  _atom_site_thermal_displace_type
  _atom_site_B_iso_or_equiv
  _atom_site_type_symbol
  _atom_site_charge
         B1        1.0000    0.35230   0.00000   0.33333   Biso      1.000     B          0.825411  
         B2        1.0000    0.64770   0.00000   0.83333   Biso      1.000     B          0.825412  
         B3        1.0000    0.00000   0.64770   0.16667   Biso      1.000     B          0.825413  
         B4        1.0000    0.64770   0.64770   0.00000   Biso      1.000     B          0.82514   
         B5        1.0000    0.00000   0.35230   0.66667   Biso      1.000     B          0.825413  
         B6        1.0000    0.35230   0.35230   0.50000   Biso      1.000     B          0.82514   
         C1        1.0000    0.51220   0.55030   0.80153   Biso      1.000     C          0.31600900000000004           
         C2        1.0000    0.75330   0.92510   0.76283   Biso      1.000     C          -0.106055           
         C3        1.0000    0.57650   0.15360   0.87793   Biso      1.000     C          -0.11849200000000001          
         C4        1.0000    0.42290   0.57650   0.04460   Biso      1.000     C          -0.118548           
         C5        1.0000    0.44970   0.48780   0.69847   Biso      1.000     C          0.31600900000000004           
         C6        1.0000    0.07490   0.24670   0.73717   Biso      1.000     C          -0.106054           
         C7        1.0000    0.84640   0.42350   0.62207   Biso      1.000     C          -0.118493           
         C8        1.0000    0.51220   0.96190   0.03180   Biso      1.000     C          0.31627   
         C9        1.0000    0.75330   0.82820   0.07050   Biso      1.000     C          -0.10591600000000001          
         C10       1.0000    0.84640   0.42290   0.21127   Biso      1.000     C          -0.118644           
         C11       1.0000    0.07490   0.82820   0.09617   Biso      1.000     C          -0.105815           
         C12       1.0000    0.17180   0.24670   0.42950   Biso      1.000     C          -0.10591700000000001          
         C13       1.0000    0.57710   0.42350   0.54460   Biso      1.000     C          -0.118548           
         C14       1.0000    0.57650   0.42290   0.95540   Biso      1.000     C          -0.118548           
         C15       1.0000    0.03810   0.48780   0.46820   Biso      1.000     C          0.31627   
         C16       1.0000    0.42350   0.84640   0.37793   Biso      1.000     C          -0.11849200000000001          
         C17       1.0000    0.24670   0.07490   0.26283   Biso      1.000     C          -0.106055           
         C18       1.0000    0.48780   0.44970   0.30153   Biso      1.000     C          0.31600900000000004           
         C19       1.0000    0.15360   0.57710   0.71127   Biso      1.000     C          -0.11864300000000001          
         C20       1.0000    0.92510   0.17180   0.59617   Biso      1.000     C          -0.105815           
         C21       1.0000    0.55030   0.03810   0.63487   Biso      1.000     C          0.31600100000000003           
         C22       1.0000    0.44970   0.96190   0.13487   Biso      1.000     C          0.31600100000000003           
         C23       1.0000    0.03810   0.55030   0.36513   Biso      1.000     C          0.316     
         C24       1.0000    0.92510   0.75330   0.23717   Biso      1.000     C          -0.106054           
         C25       1.0000    0.57710   0.15360   0.28873   Biso      1.000     C          -0.118644           
         C26       1.0000    0.58745   0.41255   0.75000   Biso      1.000     C          0.321019  
         C27       1.0000    0.51675   0.48325   0.75000   Biso      1.000     C          -0.25017  
         C28       1.0000    0.58745   0.17490   0.08333   Biso      1.000     C          0.321179  
         C29       1.0000    0.51675   0.03350   0.08333   Biso      1.000     C          -0.250418           
         C30       1.0000    0.82510   0.41255   0.41667   Biso      1.000     C          0.321179  
         C31       1.0000    0.96650   0.48325   0.41667   Biso      1.000     C          -0.250417           
         C32       1.0000    0.41255   0.58745   0.25000   Biso      1.000     C          0.321019  
         C33       1.0000    0.48325   0.51675   0.25000   Biso      1.000     C          -0.25017  
         C34       1.0000    0.41255   0.82510   0.58333   Biso      1.000     C          0.321179  
         C35       1.0000    0.48325   0.96650   0.58333   Biso      1.000     C          -0.250418           
         C36       1.0000    0.17490   0.58745   0.91667   Biso      1.000     C          0.32118   
         C37       1.0000    0.03350   0.51675   0.91667   Biso      1.000     C          -0.250418           
         C38       1.0000    0.42290   0.84640   0.78873   Biso      1.000     C          -0.11864300000000001          
         C39       1.0000    0.82820   0.07490   0.90383   Biso      1.000     C          -0.105814           
         C40       1.0000    0.96190   0.44970   0.86513   Biso      1.000     C          0.316     
         C41       1.0000    0.42350   0.57710   0.45540   Biso      1.000     C          -0.118548           
         C42       1.0000    0.24670   0.17180   0.57050   Biso      1.000     C          -0.10591600000000001          
         C43       1.0000    0.48780   0.03810   0.53180   Biso      1.000     C          0.31627   
         C44       1.0000    0.15360   0.57650   0.12207   Biso      1.000     C          -0.11849200000000001          
         C45       1.0000    0.82820   0.75330   0.92950   Biso      1.000     C          -0.10591700000000001          
         C46       1.0000    0.55030   0.51220   0.19847   Biso      1.000     C          0.31600900000000004           
         C47       1.0000    0.17180   0.92510   0.40383   Biso      1.000     C          -0.105815           
         C48       1.0000    0.96190   0.51220   0.96820   Biso      1.000     C          0.31627   
         Cd1       1.0000    0.53010   0.76505   0.91667   Biso      1.000     Cd          1.008265  
         Cd2       1.0000    0.23495   0.46990   0.58333   Biso      1.000     Cd          1.008265  
         Cd3       1.0000    0.23495   0.76505   0.25000   Biso      1.000     Cd          1.008156  
         Cd4       1.0000    0.46990   0.23495   0.41667   Biso      1.000     Cd          1.0082659999999999  
         Cd5       1.0000    0.76505   0.53010   0.08333   Biso      1.000     Cd          1.008265  
         Cd6       1.0000    0.76505   0.23495   0.75000   Biso      1.000     Cd          1.008156  
         H1        1.0000    0.65890   0.82400   0.07990   Biso      1.000     H          0.07134   
         H2        1.0000    0.14220   0.18540   0.39000   Biso      1.000     H          0.08629400000000001           
         H3        1.0000    0.17600   0.34110   0.42010   Biso      1.000     H          0.07134   
         H4        1.0000    0.09930   0.19460   0.46410   Biso      1.000     H          0.07132999999999999           
         H5        1.0000    0.66630   0.41770   0.53510   Biso      1.000     H          0.094123  
         H6        1.0000    0.53450   0.37390   0.58620   Biso      1.000     H          0.084228  
         H7        1.0000    0.60330   0.52770   0.54740   Biso      1.000     H          0.093916  
         H8        1.0000    0.09530   0.90070   0.13077   Biso      1.000     H          0.071324  
         H9        1.0000    0.16510   0.82400   0.08677   Biso      1.000     H          0.071276  
         H10       1.0000    0.52770   0.92440   0.38073   Biso      1.000     H          0.093855  
         H11       1.0000    0.75140   0.33370   0.20177   Biso      1.000     H          0.094108  
         H12       1.0000    0.83940   0.46550   0.25287   Biso      1.000     H          0.084188  
         H13       1.0000    0.92440   0.39670   0.21407   Biso      1.000     H          0.093967  
         H14       1.0000    0.81460   0.95680   0.72333   Biso      1.000     H          0.086338  
         H15       1.0000    0.04320   0.85780   0.05667   Biso      1.000     H          0.086251  
         H16       1.0000    0.37390   0.83940   0.41953   Biso      1.000     H          0.084258  
         H17       1.0000    0.34110   0.16510   0.25343   Biso      1.000     H          0.071414  
         H18       1.0000    0.19460   0.09530   0.29743   Biso      1.000     H          0.071338  
         H19       1.0000    0.85780   0.81460   0.89000   Biso      1.000     H          0.08629400000000001           
         H20       1.0000    0.82400   0.65890   0.92010   Biso      1.000     H          0.07134   
         H21       1.0000    0.90070   0.80540   0.96410   Biso      1.000     H          0.07132899999999999           
         H22       1.0000    0.33370   0.58230   0.03510   Biso      1.000     H          0.094123  
         H23       1.0000    0.46550   0.62610   0.08620   Biso      1.000     H          0.084228  
         H24       1.0000    0.39670   0.47230   0.04740   Biso      1.000     H          0.093916  
         H25       1.0000    0.41770   0.75140   0.36843   Biso      1.000     H          0.094081  
         H26       1.0000    0.95680   0.14220   0.55667   Biso      1.000     H          0.086251  
         H27       1.0000    0.90470   0.09930   0.63077   Biso      1.000     H          0.071323  
         H28       1.0000    0.24860   0.66630   0.70177   Biso      1.000     H          0.094108  
         H29       1.0000    0.16060   0.53450   0.75287   Biso      1.000     H          0.084188  
         H30       1.0000    0.07560   0.60330   0.71407   Biso      1.000     H          0.093967  
         H31       1.0000    0.81460   0.85780   0.11000   Biso      1.000     H          0.086293  
         H32       1.0000    0.65890   0.83490   0.75343   Biso      1.000     H          0.071414  
         H33       1.0000    0.83490   0.17600   0.58677   Biso      1.000     H          0.071276  
         H34       1.0000    0.80540   0.90470   0.79743   Biso      1.000     H          0.071338  
         H35       1.0000    0.18540   0.04320   0.22333   Biso      1.000     H          0.086337  
         H36       1.0000    0.62610   0.16060   0.91953   Biso      1.000     H          0.084258  
         H37       1.0000    0.07560   0.47230   0.11927   Biso      1.000     H          0.093855  
         H38       1.0000    0.24860   0.58230   0.13157   Biso      1.000     H          0.094081  
         H39       1.0000    0.90470   0.80540   0.20257   Biso      1.000     H          0.071338  
         H40       1.0000    0.83490   0.65890   0.24657   Biso      1.000     H          0.071414  
         H41       1.0000    0.95680   0.81460   0.27667   Biso      1.000     H          0.086337  
         H42       1.0000    0.60330   0.07560   0.28593   Biso      1.000     H          0.093967  
         H43       1.0000    0.53450   0.16060   0.24713   Biso      1.000     H          0.084188  
         H44       1.0000    0.18540   0.14220   0.61000   Biso      1.000     H          0.086293  
         H45       1.0000    0.66630   0.24860   0.29823   Biso      1.000     H          0.094108  
         H46       1.0000    0.17600   0.83490   0.41323   Biso      1.000     H          0.071276  
         H47       1.0000    0.14220   0.95680   0.44333   Biso      1.000     H          0.086251  
         H48       1.0000    0.47230   0.39670   0.95260   Biso      1.000     H          0.093916  
         H49       1.0000    0.62610   0.46550   0.91380   Biso      1.000     H          0.084228  
         H50       1.0000    0.58230   0.33370   0.96490   Biso      1.000     H          0.094123  
         H51       1.0000    0.80540   0.90070   0.03590   Biso      1.000     H          0.07132899999999999           
         H52       1.0000    0.58230   0.24860   0.86843   Biso      1.000     H          0.094081  
         H53       1.0000    0.09930   0.90470   0.36923   Biso      1.000     H          0.071323  
         H54       1.0000    0.34110   0.17600   0.57990   Biso      1.000     H          0.07134   
         H55       1.0000    0.16060   0.62610   0.08047   Biso      1.000     H          0.084258  
         H56       1.0000    0.41770   0.66630   0.46490   Biso      1.000     H          0.094123  
         H57       1.0000    0.04320   0.18540   0.77667   Biso      1.000     H          0.086338  
         H58       1.0000    0.16510   0.34110   0.74657   Biso      1.000     H          0.071414  
         H59       1.0000    0.09530   0.19460   0.70257   Biso      1.000     H          0.071338  
         H60       1.0000    0.75140   0.41770   0.63157   Biso      1.000     H          0.094081  
         H61       1.0000    0.19460   0.09930   0.53590   Biso      1.000     H          0.07132899999999999           
         H62       1.0000    0.83940   0.37390   0.58047   Biso      1.000     H          0.084258  
         H63       1.0000    0.92440   0.52770   0.61927   Biso      1.000     H          0.093856  
         H64       1.0000    0.39670   0.92440   0.78593   Biso      1.000     H          0.093967  
         H65       1.0000    0.33370   0.75140   0.79823   Biso      1.000     H          0.094108  
         H66       1.0000    0.90070   0.09530   0.86923   Biso      1.000     H          0.071323  
         H67       1.0000    0.82400   0.16510   0.91323   Biso      1.000     H          0.071276  
         H68       1.0000    0.85780   0.04320   0.94333   Biso      1.000     H          0.08625   
         H69       1.0000    0.52770   0.60330   0.45260   Biso      1.000     H          0.093917  
         H70       1.0000    0.37390   0.53450   0.41380   Biso      1.000     H          0.084228  
         H71       1.0000    0.46550   0.83940   0.74713   Biso      1.000     H          0.084188  
         H72       1.0000    0.47230   0.07560   0.88073   Biso      1.000     H          0.093856  
         N1        1.0000    0.35570   0.71140   0.58333   Biso      1.000     N          -0.41778699999999996          
         N2        1.0000    0.90110   0.39240   0.82493   Biso      1.000     N          -0.41082799999999997          
         N3        1.0000    0.28860   0.64430   0.91667   Biso      1.000     N          -0.41778699999999996          
         N4        1.0000    0.64430   0.35570   0.75000   Biso      1.000     N          -0.41768299999999997          
         N5        1.0000    0.71140   0.35570   0.41667   Biso      1.000     N          -0.41778699999999996          
         N6        1.0000    0.64430   0.28860   0.08333   Biso      1.000     N          -0.417786           
         N7        1.0000    0.49130   0.09890   0.49160   Biso      1.000     N          -0.41098900000000005          
         N8        1.0000    0.35570   0.64430   0.25000   Biso      1.000     N          -0.41768299999999997          
         N9        1.0000    0.60760   0.50870   0.15827   Biso      1.000     N          -0.41087799999999997          
         N10       1.0000    0.49130   0.39240   0.34173   Biso      1.000     N          -0.41087799999999997          
         N11       1.0000    0.50870   0.90110   0.99160   Biso      1.000     N          -0.41098900000000005          
         N12       1.0000    0.39240   0.49130   0.65827   Biso      1.000     N          -0.41087799999999997          
         N13       1.0000    0.50870   0.60760   0.84173   Biso      1.000     N          -0.41087799999999997          
         N14       1.0000    0.39240   0.90110   0.17507   Biso      1.000     N          -0.41082799999999997          
         N15       1.0000    0.09890   0.49130   0.50840   Biso      1.000     N          -0.41098900000000005          
         N16       1.0000    0.60760   0.09890   0.67507   Biso      1.000     N          -0.41082799999999997          
         N17       1.0000    0.90110   0.50870   0.00840   Biso      1.000     N          -0.41098900000000005          
         N18       1.0000    0.09890   0.60760   0.32493   Biso      1.000     N          -0.41082799999999997          
         O1        1.0000    0.87780   0.35950   0.66797   Biso      1.000     O          -0.470804           
         O2        1.0000    0.72930   0.70620   0.05290   Biso      1.000     O          -0.454426           
         O3        1.0000    0.64050   0.51830   0.00130   Biso      1.000     O          -0.470743           
         O4        1.0000    0.29380   0.02310   0.38623   Biso      1.000     O          -0.454482           
         O5        1.0000    0.12220   0.64050   0.16797   Biso      1.000     O          -0.47080500000000003          
         O6        1.0000    0.02310   0.72930   0.21957   Biso      1.000     O          -0.45444399999999996          
         O7        1.0000    0.97690   0.27070   0.71957   Biso      1.000     O          -0.45444399999999996          
         O8        1.0000    0.27070   0.29380   0.55290   Biso      1.000     O          -0.454427           
         O9        1.0000    0.35950   0.48170   0.50130   Biso      1.000     O          -0.470743           
         O10       1.0000    0.48170   0.12220   0.33463   Biso      1.000     O          -0.47072600000000003          
         O11       1.0000    0.64050   0.12220   0.83203   Biso      1.000     O          -0.47080299999999997          
         O12       1.0000    0.48170   0.35950   0.49870   Biso      1.000     O          -0.470743           
         O13       1.0000    0.87780   0.51830   0.16537   Biso      1.000     O          -0.47072600000000003          
         O14       1.0000    0.97690   0.70620   0.11377   Biso      1.000     O          -0.454482           
         O15       1.0000    0.29380   0.27070   0.44710   Biso      1.000     O          -0.454427           
         O16       1.0000    0.35950   0.87780   0.33203   Biso      1.000     O          -0.47080299999999997          
         O17       1.0000    0.27070   0.97690   0.28043   Biso      1.000     O          -0.45444399999999996          
         O18       1.0000    0.12220   0.48170   0.66537   Biso      1.000     O          -0.47072600000000003          
         O19       1.0000    0.02310   0.29380   0.61377   Biso      1.000     O          -0.454482           
         O20       1.0000    0.51830   0.64050   0.99870   Biso      1.000     O          -0.470743           
         O21       1.0000    0.70620   0.72930   0.94710   Biso      1.000     O          -0.454426           
         O22       1.0000    0.70620   0.97690   0.88623   Biso      1.000     O          -0.454482           
         O23       1.0000    0.72930   0.02310   0.78043   Biso      1.000     O          -0.45444399999999996          
         O24       1.0000    0.51830   0.87780   0.83463   Biso      1.000     O          -0.47072600000000003 