
##########################################################################
#               Crystallographic Information Format file
#               Produced by PyCifRW module
#
#  This is a CIF file.  CIF has been adopted by the International
#  Union of Crystallography as the standard for data archiving and
#  transmission.
#
#  For information on this file format, follow the CIF links at
#  http://www.iucr.org
##########################################################################

data_image0

_cell_length_a                          7.808
_cell_length_b                          17.456
_cell_length_c                          18.3125
_cell_angle_alpha                       90
_cell_angle_beta                        97.7212
_cell_angle_gamma                       90
_symmetry_space_group_name_H-M          'P 1'
_symmetry_int_tables_number             1
loop_
  _symmetry_equiv_pos_as_xyz
         'x, y, z' 
loop_
  _atom_site_label
  _atom_site_occupancy
  _atom_site_fract_x
  _atom_site_fract_y
  _atom_site_fract_z
  _atom_site_thermal_displace_type
  _atom_site_B_iso_or_equiv
  _atom_site_type_symbol
  _atom_site_charge
         C1        1.0000    0.60710   0.03710   0.42910   Biso      1.000     C          -0.19872  
         C2        1.0000    0.23070   0.69210   0.93390   Biso      1.000     C          0.27155100000000004           
         C3        1.0000    0.55510   0.21480   0.62930   Biso      1.000     C          0.009415999999999999          
         C4        1.0000    0.02760   0.19960   0.93860   Biso      1.000     C          0.633262  
         C5        1.0000    0.97280   0.23610   0.00620   Biso      1.000     C          -0.008912999999999999         
         C6        1.0000    0.33740   0.26830   0.79860   Biso      1.000     C          0.62634   
         C7        1.0000    0.71750   0.40310   0.81650   Biso      1.000     C          0.276312  
         C8        1.0000    0.73070   0.80790   0.43390   Biso      1.000     C          0.27155100000000004           
         C9        1.0000    0.69350   0.20100   0.69310   Biso      1.000     C          0.566738  
         C10       1.0000    0.05060   0.83570   0.71360   Biso      1.000     C          -0.007753           
         C11       1.0000    0.12130   0.89990   0.75150   Biso      1.000     C          -0.16466  
         C12       1.0000    0.19350   0.29900   0.19310   Biso      1.000     C          0.566738  
         C13       1.0000    0.83740   0.23170   0.29860   Biso      1.000     C          0.62634   
         C14       1.0000    0.97240   0.80040   0.06140   Biso      1.000     C          0.633262  
         C15       1.0000    0.52300   0.53480   0.25310   Biso      1.000     C          0.011574  
         C16       1.0000    0.48120   0.03480   0.36520   Biso      1.000     C          0.015125999999999999          
         C17       1.0000    0.52760   0.30040   0.43860   Biso      1.000     C          0.633262  
         C18       1.0000    0.47700   0.46520   0.74690   Biso      1.000     C          0.011573  
         C19       1.0000    0.66260   0.73170   0.20140   Biso      1.000     C          0.62634   
         C20       1.0000    0.64680   0.46790   0.78220   Biso      1.000     C          -0.243173           
         C21       1.0000    0.99910   0.14610   0.50340   Biso      1.000     C          0.005613  
         C22       1.0000    0.62050   0.33700   0.81800   Biso      1.000     C          -0.211842           
         C23       1.0000    0.05510   0.28520   0.12930   Biso      1.000     C          0.009415999999999999          
         C24       1.0000    0.87870   0.10010   0.24850   Biso      1.000     C          -0.16466  
         C25       1.0000    0.16260   0.76830   0.70140   Biso      1.000     C          0.626341  
         C26       1.0000    0.76930   0.30790   0.06610   Biso      1.000     C          0.27155100000000004           
         C27       1.0000    0.60730   0.81630   0.37260   Biso      1.000     C          -0.223498           
         C28       1.0000    0.47280   0.26390   0.50620   Biso      1.000     C          -0.008912999999999999         
         C29       1.0000    0.89890   0.96270   0.21280   Biso      1.000     C          0.643259  
         C30       1.0000    0.63990   0.59120   0.98180   Biso      1.000     C          -0.229169           
         C31       1.0000    0.69270   0.76720   0.49470   Biso      1.000     C          -0.262251           
         C32       1.0000    0.02720   0.76390   0.99380   Biso      1.000     C          -0.008912999999999999         
         C33       1.0000    0.39890   0.53730   0.71280   Biso      1.000     C          0.643259  
         C34       1.0000    0.50090   0.64610   0.99660   Biso      1.000     C          0.005614  
         C35       1.0000    0.37950   0.66300   0.18200   Biso      1.000     C          -0.21184499999999998          
         C36       1.0000    0.40510   0.74440   0.43160   Biso      1.000     C          -0.164009           
         C37       1.0000    0.10730   0.68370   0.87260   Biso      1.000     C          -0.223498           
         C38       1.0000    0.00090   0.85390   0.49660   Biso      1.000     C          0.005613  
         C39       1.0000    0.78000   0.59380   0.05900   Biso      1.000     C          -0.162849           
         C40       1.0000    0.12050   0.16300   0.31800   Biso      1.000     C          -0.21184499999999998          
         C41       1.0000    0.39270   0.18370   0.62740   Biso      1.000     C          -0.22349699999999997          
         C42       1.0000    0.30730   0.23280   0.50530   Biso      1.000     C          -0.262253           
         C43       1.0000    0.19270   0.73280   0.99470   Biso      1.000     C          -0.262251           
         C44       1.0000    0.39290   0.96290   0.57090   Biso      1.000     C          -0.19872  
         C45       1.0000    0.26930   0.19210   0.56610   Biso      1.000     C          0.271554  
         C46       1.0000    0.35320   0.53210   0.21780   Biso      1.000     C          -0.243179           
         C47       1.0000    0.28250   0.59690   0.18350   Biso      1.000     C          0.276319  
         C48       1.0000    0.21750   0.09690   0.31650   Biso      1.000     C          0.276314  
         C49       1.0000    0.86010   0.09120   0.51820   Biso      1.000     C          -0.22917300000000002          
         C50       1.0000    0.98120   0.46520   0.86520   Biso      1.000     C          0.015122  
         C51       1.0000    0.28000   0.90620   0.55900   Biso      1.000     C          -0.162805           
         C52       1.0000    0.52720   0.73610   0.49380   Biso      1.000     C          -0.008912999999999999         
         C53       1.0000    0.37870   0.39990   0.74850   Biso      1.000     C          -0.164659           
         C54       1.0000    0.30650   0.79900   0.30690   Biso      1.000     C          0.566738  
         C55       1.0000    0.94940   0.16430   0.28640   Biso      1.000     C          -0.00775  
         C56       1.0000    0.59490   0.25560   0.56840   Biso      1.000     C          -0.164009           
         C57       1.0000    0.44490   0.78520   0.37070   Biso      1.000     C          0.009418000000000001          
         C58       1.0000    0.89270   0.31630   0.12740   Biso      1.000     C          -0.22349499999999997          
         C59       1.0000    0.22000   0.40620   0.94100   Biso      1.000     C          -0.162849           
         C60       1.0000    0.85320   0.96790   0.71780   Biso      1.000     C          -0.243179           
         C61       1.0000    0.36010   0.40880   0.01820   Biso      1.000     C          -0.229169           
         C62       1.0000    0.55060   0.66430   0.21360   Biso      1.000     C          -0.00775  
         C63       1.0000    0.51880   0.96520   0.63480   Biso      1.000     C          0.015125999999999999          
         C64       1.0000    0.72000   0.09380   0.44100   Biso      1.000     C          -0.162805           
         C65       1.0000    0.89290   0.53710   0.07090   Biso      1.000     C          -0.198676           
         C66       1.0000    0.94490   0.71480   0.87070   Biso      1.000     C          0.009419  
         C67       1.0000    0.10110   0.03730   0.78720   Biso      1.000     C          0.643259  
         C68       1.0000    0.62130   0.60010   0.25150   Biso      1.000     C          -0.164659           
         C69       1.0000    0.13990   0.90880   0.48180   Biso      1.000     C          -0.22917300000000002          
         C70       1.0000    0.09490   0.24440   0.06840   Biso      1.000     C          -0.164009           
         C71       1.0000    0.97700   0.03480   0.24690   Biso      1.000     C          0.011574  
         C72       1.0000    0.60110   0.46270   0.28720   Biso      1.000     C          0.643259  
         C73       1.0000    0.78250   0.90310   0.68350   Biso      1.000     C          0.27631700000000003           
         C74       1.0000    0.80650   0.70100   0.80690   Biso      1.000     C          0.566738  
         C75       1.0000    0.10710   0.46290   0.92910   Biso      1.000     C          -0.198676           
         C76       1.0000    0.02300   0.96520   0.75310   Biso      1.000     C          0.011575  
         C77       1.0000    0.47240   0.69960   0.56140   Biso      1.000     C          0.633261  
         C78       1.0000    0.87950   0.83700   0.68200   Biso      1.000     C          -0.21184  
         C79       1.0000    0.01880   0.53480   0.13480   Biso      1.000     C          0.015122  
         C80       1.0000    0.90510   0.75560   0.93160   Biso      1.000     C          -0.164009           
         C81       1.0000    0.14680   0.03210   0.28220   Biso      1.000     C          -0.24317399999999997          
         C82       1.0000    0.49910   0.35390   0.00340   Biso      1.000     C          0.005614  
         C83       1.0000    0.44940   0.33570   0.78640   Biso      1.000     C          -0.00775  
         C84       1.0000    0.80730   0.26720   0.00530   Biso      1.000     C          -0.262251           
         H1        1.0000    0.19420   0.89240   0.43980   Biso      1.000     H          0.118926  
         H2        1.0000    0.86530   0.34350   0.16800   Biso      1.000     H          0.135766  
         H3        1.0000    0.15610   0.35860   0.94070   Biso      1.000     H          0.093838  
         H4        1.0000    0.71100   0.51290   0.78250   Biso      1.000     H          0.14241800000000002           
         H5        1.0000    0.40640   0.46000   0.02750   Biso      1.000     H          0.110554  
         H6        1.0000    0.36530   0.15650   0.66800   Biso      1.000     H          0.135766  
         H7        1.0000    0.96060   0.52450   0.17730   Biso      1.000     H          0.07283300000000001           
         H8        1.0000    0.40300   0.99260   0.37020   Biso      1.000     H          0.078138  
         H9        1.0000    0.79620   0.77740   0.93060   Biso      1.000     H          0.126524  
         H10       1.0000    0.67070   0.29310   0.84050   Biso      1.000     H          0.141057  
         H11       1.0000    0.78600   0.09550   0.39970   Biso      1.000     H          0.08816   
         H12       1.0000    0.28900   0.48710   0.21750   Biso      1.000     H          0.14241800000000002           
         H13       1.0000    0.30580   0.39240   0.06020   Biso      1.000     H          0.118926  
         H14       1.0000    0.22400   0.23940   0.46450   Biso      1.000     H          0.128109  
         H15       1.0000    0.53940   0.02450   0.32270   Biso      1.000     H          0.07283200000000001           
         H16       1.0000    0.21100   0.98710   0.28250   Biso      1.000     H          0.14241800000000002           
         H17       1.0000    0.59360   0.54000   0.97250   Biso      1.000     H          0.110554  
         H18       1.0000    0.45520   0.96490   0.52860   Biso      1.000     H          0.093716  
         H19       1.0000    0.26600   0.39860   0.72430   Biso      1.000     H          0.132322  
         H20       1.0000    0.95520   0.53510   0.02860   Biso      1.000     H          0.093713  
         H21       1.0000    0.17310   0.51000   0.92950   Biso      1.000     H          0.112571  
         H22       1.0000    0.94830   0.19480   0.48650   Biso      1.000     H          0.07559500000000001           
         H23       1.0000    0.82930   0.79310   0.65950   Biso      1.000     H          0.141057  
         H24       1.0000    0.90300   0.50740   0.87020   Biso      1.000     H          0.078138  
         H25       1.0000    0.76600   0.10140   0.22430   Biso      1.000     H          0.132322  
         H26       1.0000    0.71400   0.59550   0.10030   Biso      1.000     H          0.088162  
         H27       1.0000    0.27600   0.73940   0.03550   Biso      1.000     H          0.128109  
         H28       1.0000    0.29620   0.72260   0.43060   Biso      1.000     H          0.126524  
         H29       1.0000    0.72400   0.26060   0.96450   Biso      1.000     H          0.128109  
         H30       1.0000    0.82690   0.49000   0.07050   Biso      1.000     H          0.112571  
         H31       1.0000    0.69420   0.60760   0.93980   Biso      1.000     H          0.118926  
         H32       1.0000    0.32930   0.70690   0.15950   Biso      1.000     H          0.141057  
         H33       1.0000    0.55170   0.69480   0.01350   Biso      1.000     H          0.07559500000000001           
         H34       1.0000    0.59700   0.00740   0.62980   Biso      1.000     H          0.078138  
         H35       1.0000    0.05170   0.80520   0.51350   Biso      1.000     H          0.07559500000000001           
         H36       1.0000    0.84390   0.64140   0.05930   Biso      1.000     H          0.093838  
         H37       1.0000    0.23400   0.89860   0.77570   Biso      1.000     H          0.132322  
         H38       1.0000    0.21400   0.90450   0.60030   Biso      1.000     H          0.08816   
         H39       1.0000    0.78900   0.01290   0.71750   Biso      1.000     H          0.14241800000000002           
         H40       1.0000    0.28600   0.40450   0.89970   Biso      1.000     H          0.088162  
         H41       1.0000    0.80580   0.10760   0.56020   Biso      1.000     H          0.118926  
         H42       1.0000    0.43820   0.62580   0.03460   Biso      1.000     H          0.07276   
         H43       1.0000    0.65610   0.14140   0.44070   Biso      1.000     H          0.093835  
         H44       1.0000    0.56180   0.37420   0.96540   Biso      1.000     H          0.07276   
         H45       1.0000    0.20380   0.22260   0.06940   Biso      1.000     H          0.126524  
         H46       1.0000    0.90640   0.04000   0.52750   Biso      1.000     H          0.110554  
         H47       1.0000    0.09700   0.49260   0.12980   Biso      1.000     H          0.078138  
         H48       1.0000    0.32690   0.01000   0.57050   Biso      1.000     H          0.112573  
         H49       1.0000    0.06180   0.12580   0.46540   Biso      1.000     H          0.07276   
         H50       1.0000    0.13470   0.65650   0.83200   Biso      1.000     H          0.135766  
         H51       1.0000    0.04480   0.46490   0.97140   Biso      1.000     H          0.093713  
         H52       1.0000    0.17070   0.20690   0.34050   Biso      1.000     H          0.141057  
         H53       1.0000    0.67310   0.99000   0.42950   Biso      1.000     H          0.112573  
         H54       1.0000    0.93820   0.87420   0.53460   Biso      1.000     H          0.07276   
         H55       1.0000    0.34390   0.85860   0.55930   Biso      1.000     H          0.093835  
         H56       1.0000    0.44830   0.30520   0.98650   Biso      1.000     H          0.07559500000000001           
         H57       1.0000    0.73400   0.60140   0.27570   Biso      1.000     H          0.132322  
         H58       1.0000    0.77600   0.76060   0.53550   Biso      1.000     H          0.128109  
         H59       1.0000    0.54480   0.03510   0.47140   Biso      1.000     H          0.093716  
         H60       1.0000    0.63470   0.84350   0.33200   Biso      1.000     H          0.135766  
         H61       1.0000    0.09360   0.96000   0.47250   Biso      1.000     H          0.110554  
         H62       1.0000    0.70380   0.27740   0.56940   Biso      1.000     H          0.126524  
         H63       1.0000    0.03940   0.47550   0.82270   Biso      1.000     H          0.07283300000000001           
         H64       1.0000    0.46060   0.97550   0.67730   Biso      1.000     H          0.07283300000000001           
         O1        1.0000    0.67280   0.74410   0.80090   Biso      1.000     O          -0.556537           
         O2        1.0000    0.11640   0.60220   0.14810   Biso      1.000     O          -0.197633           
         O3        1.0000    0.09340   0.71530   0.66000   Biso      1.000     O          -0.5991569999999999           
         O4        1.0000    0.42490   0.29400   0.37930   Biso      1.000     O          -0.554683           
         O5        1.0000    0.17670   0.35150   0.23700   Biso      1.000     O          -0.57823  
         O6        1.0000    0.38360   0.10220   0.35190   Biso      1.000     O          -0.197633           
         O7        1.0000    0.29170   0.53060   0.65390   Biso      1.000     O          -0.592389           
         O8        1.0000    0.82330   0.64850   0.76300   Biso      1.000     O          -0.57823  
         O9        1.0000    0.17280   0.75590   0.30090   Biso      1.000     O          -0.5565359999999999           
         O10       1.0000    0.92490   0.20600   0.87930   Biso      1.000     O          -0.554682           
         O11       1.0000    0.33060   0.66680   0.55430   Biso      1.000     O          -0.609727           
         O12       1.0000    0.82720   0.24410   0.69910   Biso      1.000     O          -0.556537           
         O13       1.0000    0.31840   0.77060   0.73100   Biso      1.000     O          -0.520351           
         O14       1.0000    0.90660   0.28470   0.34000   Biso      1.000     O          -0.5991569999999999           
         O15       1.0000    0.66940   0.33320   0.44570   Biso      1.000     O          -0.609727           
         O16       1.0000    0.18160   0.27060   0.76900   Biso      1.000     O          -0.520351           
         O17       1.0000    0.70830   0.46940   0.34610   Biso      1.000     O          -0.592389           
         O18       1.0000    0.67670   0.14850   0.73700   Biso      1.000     O          -0.57823  
         O19       1.0000    0.61300   0.34340   0.06970   Biso      1.000     O          -0.206215           
         O20       1.0000    0.06130   0.09880   0.75700   Biso      1.000     O          -0.548801           
         O21       1.0000    0.57510   0.70600   0.62070   Biso      1.000     O          -0.554683           
         O22       1.0000    0.56130   0.40120   0.25700   Biso      1.000     O          -0.548801           
         O23       1.0000    0.83060   0.83320   0.05430   Biso      1.000     O          -0.609727           
         O24       1.0000    0.20830   0.03060   0.84610   Biso      1.000     O          -0.592389           
         O25       1.0000    0.40660   0.21530   0.84000   Biso      1.000     O          -0.599156           
         O26       1.0000    0.61640   0.89780   0.64810   Biso      1.000     O          -0.197633           
         O27       1.0000    0.43870   0.59880   0.74300   Biso      1.000     O          -0.548802           
         O28       1.0000    0.93870   0.90120   0.24300   Biso      1.000     O          -0.548801           
         O29       1.0000    0.38700   0.65660   0.93030   Biso      1.000     O          -0.206215           
         O30       1.0000    0.79170   0.96940   0.15390   Biso      1.000     O          -0.592389           
         O31       1.0000    0.81840   0.72940   0.23100   Biso      1.000     O          -0.520351           
         O32       1.0000    0.16940   0.16680   0.94570   Biso      1.000     O          -0.609727           
         O33       1.0000    0.32720   0.25590   0.19910   Biso      1.000     O          -0.5565359999999999           
         O34       1.0000    0.88700   0.84340   0.43030   Biso      1.000     O          -0.206215           
         O35       1.0000    0.68160   0.22940   0.26900   Biso      1.000     O          -0.520351           
         O36       1.0000    0.59340   0.78470   0.16000   Biso      1.000     O          -0.599156           
         O37       1.0000    0.88360   0.39780   0.85190   Biso      1.000     O          -0.197633           
         O38       1.0000    0.07510   0.79400   0.12070   Biso      1.000     O          -0.554683           
         O39       1.0000    0.11300   0.15660   0.56970   Biso      1.000     O          -0.206215           
         O40       1.0000    0.32330   0.85150   0.26300   Biso      1.000     O          -0.578231           
         Zn1       1.0000    0.65428   0.87996   0.11353   Biso      1.000     Zn          1.10501   
         Zn2       1.0000    0.48933   0.29801   0.28017   Biso      1.000     Zn          0.9530270000000001  
         Zn3       1.0000    0.51067   0.70199   0.71983   Biso      1.000     Zn          0.9530270000000001  
         Zn4       1.0000    0.01067   0.79801   0.21983   Biso      1.000     Zn          0.9530280000000001  
         Zn5       1.0000    0.15428   0.62004   0.61353   Biso      1.000     Zn          1.105011  
         Zn6       1.0000    0.98933   0.20199   0.78017   Biso      1.000     Zn          0.9530270000000001  
         Zn7       1.0000    0.34572   0.12004   0.88647   Biso      1.000     Zn          1.10501   
         Zn8       1.0000    0.84572   0.37996   0.38647   Biso      1.000     Zn          1.105011 