
##########################################################################
#               Crystallographic Information Format file
#               Produced by PyCifRW module
#
#  This is a CIF file.  CIF has been adopted by the International
#  Union of Crystallography as the standard for data archiving and
#  transmission.
#
#  For information on this file format, follow the CIF links at
#  http://www.iucr.org
##########################################################################

data_image0

_cell_length_a                          14.69
_cell_length_b                          15.126
_cell_length_c                          15.126
_cell_angle_alpha                       120
_cell_angle_beta                        90
_cell_angle_gamma                       90
_symmetry_space_group_name_H-M          'P 1'
_symmetry_int_tables_number             1
loop_
  _symmetry_equiv_pos_as_xyz
         'x, y, z' 
loop_
  _atom_site_label
  _atom_site_occupancy
  _atom_site_fract_x
  _atom_site_fract_y
  _atom_site_fract_z
  _atom_site_thermal_displace_type
  _atom_site_B_iso_or_equiv
  _atom_site_type_symbol
  _atom_site_charge
         C1        1.0000    0.36040   0.12970   0.64340   Biso      1.000     C          0.605564  
         C2        1.0000    0.86040   0.12970   0.48630   Biso      1.000     C          0.6055590000000001  
         C3        1.0000    0.79950   0.58530   0.73160   Biso      1.000     C          -0.020024           
         C4        1.0000    0.86040   0.51370   0.64340   Biso      1.000     C          0.6055699999999999  
         C5        1.0000    0.79950   0.26840   0.85370   Biso      1.000     C          -0.019999           
         C6        1.0000    0.86040   0.35660   0.87030   Biso      1.000     C          0.6055590000000001  
         C7        1.0000    0.29950   0.73160   0.58530   Biso      1.000     C          -0.019997           
         C8        1.0000    0.36040   0.64340   0.51370   Biso      1.000     C          0.605557  
         C9        1.0000    0.29950   0.85370   0.26840   Biso      1.000     C          -0.020003999999999997         
         C10       1.0000    0.36040   0.87030   0.35660   Biso      1.000     C          0.605564  
         C11       1.0000    0.29950   0.41470   0.14630   Biso      1.000     C          -0.019972           
         C12       1.0000    0.36040   0.48630   0.12970   Biso      1.000     C          0.605554  
         C13       1.0000    0.29950   0.26840   0.41470   Biso      1.000     C          -0.020003           
         C14       1.0000    0.36040   0.35660   0.48630   Biso      1.000     C          0.605558  
         C15       1.0000    0.29950   0.14630   0.73160   Biso      1.000     C          -0.020000999999999998         
         C16       1.0000    0.20050   0.41470   0.26840   Biso      1.000     C          -0.020015           
         C17       1.0000    0.29950   0.58530   0.85370   Biso      1.000     C          -0.019962999999999998         
         C18       1.0000    0.36040   0.51370   0.87030   Biso      1.000     C          0.605554  
         C19       1.0000    0.20050   0.14630   0.41470   Biso      1.000     C          -0.019992           
         C20       1.0000    0.13960   0.12970   0.48630   Biso      1.000     C          0.605558  
         C21       1.0000    0.20050   0.58530   0.73160   Biso      1.000     C          -0.020021           
         C22       1.0000    0.13960   0.51370   0.64340   Biso      1.000     C          0.6055689999999999  
         C23       1.0000    0.20050   0.26840   0.85370   Biso      1.000     C          -0.019994           
         C24       1.0000    0.13960   0.35660   0.87030   Biso      1.000     C          0.605558  
         C25       1.0000    0.79950   0.14630   0.41470   Biso      1.000     C          -0.02     
         C26       1.0000    0.86040   0.64340   0.12970   Biso      1.000     C          0.6055590000000001  
         C27       1.0000    0.79950   0.73160   0.14630   Biso      1.000     C          -0.020003           
         C28       1.0000    0.86040   0.48630   0.35660   Biso      1.000     C          0.6055689999999999  
         C29       1.0000    0.13960   0.64340   0.12970   Biso      1.000     C          0.6055560000000001  
         C30       1.0000    0.20050   0.73160   0.14630   Biso      1.000     C          -0.020000999999999998         
         C31       1.0000    0.13960   0.48630   0.35660   Biso      1.000     C          0.605568  
         C32       1.0000    0.70050   0.26840   0.41470   Biso      1.000     C          -0.020003           
         C33       1.0000    0.63960   0.35660   0.48630   Biso      1.000     C          0.6055590000000001  
         C34       1.0000    0.20050   0.85370   0.58530   Biso      1.000     C          -0.020003           
         C35       1.0000    0.63960   0.12970   0.64340   Biso      1.000     C          0.605564  
         C36       1.0000    0.70050   0.58530   0.85370   Biso      1.000     C          -0.019971           
         C37       1.0000    0.63960   0.51370   0.87030   Biso      1.000     C          0.605554  
         C38       1.0000    0.70050   0.14630   0.73160   Biso      1.000     C          -0.019998           
         C39       1.0000    0.63960   0.64340   0.51370   Biso      1.000     C          0.605557  
         C40       1.0000    0.70050   0.85370   0.26840   Biso      1.000     C          -0.020003           
         C41       1.0000    0.63960   0.87030   0.35660   Biso      1.000     C          0.6055649999999999  
         C42       1.0000    0.70050   0.41470   0.14630   Biso      1.000     C          -0.019975           
         C43       1.0000    0.63960   0.48630   0.12970   Biso      1.000     C          0.6055550000000001  
         C44       1.0000    0.79950   0.85370   0.58530   Biso      1.000     C          -0.020005000000000002         
         C45       1.0000    0.86040   0.87030   0.51370   Biso      1.000     C          0.605561  
         C46       1.0000    0.79950   0.41470   0.26840   Biso      1.000     C          -0.020018           
         C47       1.0000    0.70050   0.73160   0.58530   Biso      1.000     C          -0.019991           
         C48       1.0000    0.13960   0.87030   0.51370   Biso      1.000     C          0.605558  
         Cu1       1.0000    0.00000   0.50000   0.00000   Biso      1.000     Cu          0.972241  
         Cu2       1.0000    0.00000   0.50000   0.50000   Biso      1.000     Cu          0.972253  
         Cu3       1.0000    0.00000   0.00000   0.50000   Biso      1.000     Cu          0.9722459999999999  
         Cu4       1.0000    0.50000   0.50000   0.00000   Biso      1.000     Cu          0.972247  
         Cu5       1.0000    0.50000   0.00000   0.50000   Biso      1.000     Cu          0.972248  
         Cu6       1.0000    0.50000   0.50000   0.50000   Biso      1.000     Cu          0.9722370000000001  
         Gd1       1.0000    0.75000   0.33333   0.66666   Biso      1.000     Gd          1.9244869999999998  
         Gd2       1.0000    0.25000   0.33333   0.66666   Biso      1.000     Gd          1.924484  
         Gd3       1.0000    0.25000   0.66667   0.33334   Biso      1.000     Gd          1.924481  
         Gd4       1.0000    0.75000   0.66667   0.33334   Biso      1.000     Gd          1.9244880000000002  
         O1        1.0000    0.40670   0.39360   0.44290   Biso      1.000     O          -0.49092700000000006          
         O2        1.0000    0.35840   0.19300   0.61460   Biso      1.000     O          -0.5774520000000001           
         O3        1.0000    0.40670   0.04930   0.60640   Biso      1.000     O          -0.490937           
         O4        1.0000    0.35840   0.42160   0.80700   Biso      1.000     O          -0.577425           
         O5        1.0000    0.40670   0.55710   0.95070   Biso      1.000     O          -0.490929           
         O6        1.0000    0.14160   0.19300   0.57840   Biso      1.000     O          -0.577438           
         O7        1.0000    0.09330   0.04930   0.44290   Biso      1.000     O          -0.49092700000000006          
         O8        1.0000    0.14160   0.42160   0.61460   Biso      1.000     O          -0.577453           
         O9        1.0000    0.09330   0.55710   0.60640   Biso      1.000     O          -0.49093100000000006          
         O10       1.0000    0.14160   0.38540   0.80700   Biso      1.000     O          -0.577434           
         O11       1.0000    0.09330   0.39360   0.95070   Biso      1.000     O          -0.490932           
         O12       1.0000    0.14160   0.80700   0.42160   Biso      1.000     O          -0.57744  
         O13       1.0000    0.09330   0.95070   0.55710   Biso      1.000     O          -0.49092700000000006          
         O14       1.0000    0.09330   0.44290   0.39360   Biso      1.000     O          -0.490933           
         O15       1.0000    0.35840   0.38540   0.57840   Biso      1.000     O          -0.577439           
         O16       1.0000    0.14160   0.61460   0.19300   Biso      1.000     O          -0.577436           
         O17       1.0000    0.09330   0.60640   0.04930   Biso      1.000     O          -0.490933           
         O18       1.0000    0.75000   0.23705   0.47410   Biso      1.000     O          -0.162012           
         O19       1.0000    0.75000   0.23705   0.76295   Biso      1.000     O          -0.161997           
         O20       1.0000    0.75000   0.52590   0.76295   Biso      1.000     O          -0.161995           
         O21       1.0000    0.75000   0.76295   0.52590   Biso      1.000     O          -0.16201300000000002          
         O22       1.0000    0.75000   0.76295   0.23705   Biso      1.000     O          -0.161997           
         O23       1.0000    0.75000   0.47410   0.23705   Biso      1.000     O          -0.161995           
         O24       1.0000    0.25000   0.76295   0.52590   Biso      1.000     O          -0.162012           
         O25       1.0000    0.25000   0.76295   0.23705   Biso      1.000     O          -0.161996           
         O26       1.0000    0.25000   0.47410   0.23705   Biso      1.000     O          -0.161995           
         O27       1.0000    0.25000   0.23705   0.47410   Biso      1.000     O          -0.16201300000000002          
         O28       1.0000    0.14160   0.57840   0.38540   Biso      1.000     O          -0.577451           
         O29       1.0000    0.40670   0.44290   0.04930   Biso      1.000     O          -0.49093000000000003          
         O30       1.0000    0.64160   0.38540   0.57840   Biso      1.000     O          -0.577437           
         O31       1.0000    0.40670   0.95070   0.39360   Biso      1.000     O          -0.490938           
         O32       1.0000    0.25000   0.23705   0.76295   Biso      1.000     O          -0.161997           
         O33       1.0000    0.59330   0.39360   0.44290   Biso      1.000     O          -0.49092700000000006          
         O34       1.0000    0.64160   0.19300   0.61460   Biso      1.000     O          -0.57745  
         O35       1.0000    0.59330   0.04930   0.60640   Biso      1.000     O          -0.490936           
         O36       1.0000    0.64160   0.42160   0.80700   Biso      1.000     O          -0.577425           
         O37       1.0000    0.59330   0.55710   0.95070   Biso      1.000     O          -0.490928           
         O38       1.0000    0.64160   0.61460   0.42160   Biso      1.000     O          -0.577436           
         O39       1.0000    0.59330   0.60640   0.55710   Biso      1.000     O          -0.49092600000000003          
         O40       1.0000    0.64160   0.80700   0.38540   Biso      1.000     O          -0.57745  
         O41       1.0000    0.59330   0.95070   0.39360   Biso      1.000     O          -0.490936           
         O42       1.0000    0.64160   0.57840   0.19300   Biso      1.000     O          -0.577425           
         O43       1.0000    0.59330   0.44290   0.04930   Biso      1.000     O          -0.490928           
         O44       1.0000    0.85840   0.80700   0.42160   Biso      1.000     O          -0.577438           
         O45       1.0000    0.90670   0.95070   0.55710   Biso      1.000     O          -0.490925           
         O46       1.0000    0.85840   0.57840   0.38540   Biso      1.000     O          -0.577451           
         O47       1.0000    0.90670   0.44290   0.39360   Biso      1.000     O          -0.49093100000000006          
         O48       1.0000    0.85840   0.61460   0.19300   Biso      1.000     O          -0.577435           
         O49       1.0000    0.90670   0.60640   0.04930   Biso      1.000     O          -0.49093000000000003          
         O50       1.0000    0.85840   0.19300   0.57840   Biso      1.000     O          -0.577439           
         O51       1.0000    0.90670   0.04930   0.44290   Biso      1.000     O          -0.490925           
         O52       1.0000    0.85840   0.42160   0.61460   Biso      1.000     O          -0.577453           
         O53       1.0000    0.90670   0.55710   0.60640   Biso      1.000     O          -0.49093100000000006          
         O54       1.0000    0.85840   0.38540   0.80700   Biso      1.000     O          -0.577434           
         O55       1.0000    0.90670   0.39360   0.95070   Biso      1.000     O          -0.49093100000000006          
         O56       1.0000    0.35840   0.61460   0.42160   Biso      1.000     O          -0.577437           
         O57       1.0000    0.40670   0.60640   0.55710   Biso      1.000     O          -0.49093000000000003          
         O58       1.0000    0.35840   0.80700   0.38540   Biso      1.000     O          -0.577453           
         O59       1.0000    0.35840   0.57840   0.19300   Biso      1.000     O          -0.577426           
         O60       1.0000    0.25000   0.52590   0.76295   Biso      1.000     O          -0.161996 