
##########################################################################
#               Crystallographic Information Format file
#               Produced by PyCifRW module
#
#  This is a CIF file.  CIF has been adopted by the International
#  Union of Crystallography as the standard for data archiving and
#  transmission.
#
#  For information on this file format, follow the CIF links at
#  http://www.iucr.org
##########################################################################

data_image0

_cell_length_a                          11.0888
_cell_length_b                          11.0888
_cell_length_c                          11.0888
_cell_angle_alpha                       107.557
_cell_angle_beta                        109.112
_cell_angle_gamma                       111.773
_symmetry_space_group_name_H-M          'P 1'
_symmetry_int_tables_number             1
loop_
  _symmetry_equiv_pos_as_xyz
         'x, y, z' 
loop_
  _atom_site_label
  _atom_site_occupancy
  _atom_site_fract_x
  _atom_site_fract_y
  _atom_site_fract_z
  _atom_site_thermal_displace_type
  _atom_site_B_iso_or_equiv
  _atom_site_type_symbol
  _atom_site_charge
         Ag1       1.0000    0.28025   0.64157   0.88548   Biso      1.000     Ag          0.157077  
         Ag2       1.0000    0.21975   0.10523   0.36132   Biso      1.000     Ag          0.157073  
         Ag3       1.0000    0.24391   0.85843   0.13868   Biso      1.000     Ag          0.157078  
         Ag4       1.0000    0.25609   0.39477   0.61452   Biso      1.000     Ag          0.15708   
         C1        1.0000    0.60530   0.13710   0.71640   Biso      1.000     C          0.095843  
         C2        1.0000    0.85680   0.18180   0.92460   Biso      1.000     C          -0.131806           
         C3        1.0000    0.86320   0.25840   0.84580   Biso      1.000     C          0.099969  
         C4        1.0000    0.04640   0.35720   0.57800   Biso      1.000     C          -0.033259           
         C5        1.0000    0.46050   0.42160   0.64030   Biso      1.000     C          -0.032786           
         C6        1.0000    0.03950   0.67980   0.96110   Biso      1.000     C          -0.03279  
         C7        1.0000    0.45360   0.03160   0.31080   Biso      1.000     C          -0.03327  
         C8        1.0000    0.63680   0.48260   0.39520   Biso      1.000     C          0.099891  
         C9        1.0000    0.64320   0.56780   0.32500   Biso      1.000     C          -0.13178099999999998          
         C10       1.0000    0.78500   0.67800   0.36100   Biso      1.000     C          -0.022802           
         C11       1.0000    0.91320   0.69720   0.46600   Biso      1.000     C          -0.120609           
         C12       1.0000    0.89470   0.61110   0.53180   Biso      1.000     C          0.095925  
         C13       1.0000    0.73120   0.44720   0.03400   Biso      1.000     C          -0.12057799999999999          
         C14       1.0000    0.71500   0.07600   0.89300   Biso      1.000     C          -0.02284  
         C15       1.0000    0.81700   0.42400   0.13900   Biso      1.000     C          -0.022818           
         C16       1.0000    0.74280   0.31820   0.17500   Biso      1.000     C          -0.131797           
         C17       1.0000    0.58740   0.24160   0.10480   Biso      1.000     C          0.09995599999999999           
         C18       1.0000    0.22080   0.14280   0.18920   Biso      1.000     C          -0.033260000000000005         
         C19       1.0000    0.21870   0.07840   0.53890   Biso      1.000     C          -0.03279  
         C20       1.0000    0.92070   0.88890   0.78360   Biso      1.000     C          0.095802  
         C21       1.0000    0.76880   0.80280   0.71600   Biso      1.000     C          -0.120486           
         C22       1.0000    0.68300   0.82200   0.60700   Biso      1.000     C          -0.022836000000000002         
         C23       1.0000    0.75720   0.93220   0.57540   Biso      1.000     C          -0.13180899999999998          
         C24       1.0000    0.91260   0.01740   0.65420   Biso      1.000     C          0.099983  
         C25       1.0000    0.27920   0.46840   0.92200   Biso      1.000     C          -0.033269           
         C26       1.0000    0.28130   0.82020   0.85970   Biso      1.000     C          -0.032786           
         C27       1.0000    0.57930   0.36290   0.96820   Biso      1.000     C          0.095916  
         C28       1.0000    0.58680   0.05280   0.78400   Biso      1.000     C          -0.12048900000000001          
         Cd1       1.0000    0.25000   0.12772   0.87772   Biso      1.000     Cd          0.828942  
         Cd2       1.0000    0.75000   0.37228   0.62228   Biso      1.000     Cd          0.82893   
         H1        1.0000    0.79360   0.74931   0.30497   Biso      1.000     H          0.101688  
         H2        1.0000    0.53549   0.54790   0.24054   Biso      1.000     H          0.12009700000000001           
         H3        1.0000    0.52389   0.39101   0.36634   Biso      1.000     H          0.086684  
         H4        1.0000    0.50350   0.12508   0.63112   Biso      1.000     H          0.080347  
         H5        1.0000    0.47115   0.96539   0.75410   Biso      1.000     H          0.118046  
         H6        1.0000    0.70640   0.01137   0.95571   Biso      1.000     H          0.101699  
         H7        1.0000    0.96451   0.20504   0.01240   Biso      1.000     H          0.120118  
         H8        1.0000    0.97611   0.34244   0.86712   Biso      1.000     H          0.08664   
         H9        1.0000    0.50605   0.37492   0.87842   Biso      1.000     H          0.080313  
         H10       1.0000    0.78871   0.53461   0.00575   Biso      1.000     H          0.11807100000000001           
         H11       1.0000    0.94434   0.48863   0.19503   Biso      1.000     H          0.101698  
         H12       1.0000    0.80736   0.29496   0.25946   Biso      1.000     H          0.12010499999999999           
         H13       1.0000    0.52468   0.15756   0.13366   Biso      1.000     H          0.086658  
         H14       1.0000    0.99395   0.87237   0.86888   Biso      1.000     H          0.08036   
         H15       1.0000    0.02885   0.78295   0.49425   Biso      1.000     H          0.118095  
         H16       1.0000    0.71129   0.71705   0.74590   Biso      1.000     H          0.11804500000000001           
         H17       1.0000    0.69264   0.95210   0.48760   Biso      1.000     H          0.120104  
         H18       1.0000    0.97532   0.10899   0.63288   Biso      1.000     H          0.086634  
         H19       1.0000    0.55566   0.75069   0.54429   Biso      1.000     H          0.1017    
         H20       1.0000    0.99650   0.62763   0.62158   Biso      1.000     H          0.080309  
         N1        1.0000    0.75920   0.50380   0.49660   Biso      1.000     N          -0.24376399999999998          
         N2        1.0000    0.55920   0.13660   0.40380   Biso      1.000     N          -0.34579699999999997          
         N3        1.0000    0.93530   0.58310   0.85180   Biso      1.000     N          -0.343438           
         N4        1.0000    0.74080   0.23740   0.74460   Biso      1.000     N          -0.24376799999999998          
         N5        1.0000    0.94080   0.34460   0.57740   Biso      1.000     N          -0.345794           
         N6        1.0000    0.56470   0.41650   0.64780   Biso      1.000     N          -0.343439           
         N7        1.0000    0.26870   0.91690   0.85220   Biso      1.000     N          -0.343444           
         N8        1.0000    0.26720   0.36340   0.92260   Biso      1.000     N          -0.345794           
         N9        1.0000    0.99280   0.99620   0.75540   Biso      1.000     N          -0.243759           
         N10       1.0000    0.23130   0.08350   0.64820   Biso      1.000     N          -0.343441           
         N11       1.0000    0.23280   0.15540   0.09620   Biso      1.000     N          -0.345798           
         N12       1.0000    0.50720   0.26260   0.00340   Biso      1.000     N          -0.243781 