
##########################################################################
#               Crystallographic Information Format file
#               Produced by PyCifRW module
#
#  This is a CIF file.  CIF has been adopted by the International
#  Union of Crystallography as the standard for data archiving and
#  transmission.
#
#  For information on this file format, follow the CIF links at
#  http://www.iucr.org
##########################################################################

data_image0

_cell_length_a                          12.7816
_cell_length_b                          12.7816
_cell_length_c                          13.062
_cell_angle_alpha                       90
_cell_angle_beta                        90
_cell_angle_gamma                       90
_symmetry_space_group_name_H-M          'P 1'
_symmetry_int_tables_number             1
loop_
  _symmetry_equiv_pos_as_xyz
         'x, y, z' 
loop_
  _atom_site_label
  _atom_site_occupancy
  _atom_site_fract_x
  _atom_site_fract_y
  _atom_site_fract_z
  _atom_site_thermal_displace_type
  _atom_site_B_iso_or_equiv
  _atom_site_type_symbol
  _atom_site_charge
         Ag1       1.0000    0.74145   0.25855   0.00000   Biso      1.000     Ag          0.278023  
         Ag2       1.0000    0.75855   0.25855   0.75000   Biso      1.000     Ag          0.278023  
         Ag3       1.0000    0.25855   0.75855   0.25000   Biso      1.000     Ag          0.278023  
         Ag4       1.0000    0.24145   0.74145   0.75000   Biso      1.000     Ag          0.278022  
         Ag5       1.0000    0.24145   0.75855   0.50000   Biso      1.000     Ag          0.278024  
         Ag6       1.0000    0.75855   0.24145   0.50000   Biso      1.000     Ag          0.278024  
         Ag7       1.0000    0.25855   0.74145   0.00000   Biso      1.000     Ag          0.278023  
         Ag8       1.0000    0.74145   0.24145   0.25000   Biso      1.000     Ag          0.278023  
         C1        1.0000    0.67480   0.80770   0.50170   Biso      1.000     C          -0.085993           
         C2        1.0000    0.77960   0.72040   0.75000   Biso      1.000     C          0.087786  
         C3        1.0000    0.72910   0.90050   0.75250   Biso      1.000     C          0.138801  
         C4        1.0000    0.65740   0.13550   0.57160   Biso      1.000     C          -0.023883           
         C5        1.0000    0.30770   0.32520   0.25170   Biso      1.000     C          -0.085991           
         C6        1.0000    0.36450   0.65740   0.32160   Biso      1.000     C          -0.023883           
         C7        1.0000    0.59950   0.72910   0.50250   Biso      1.000     C          0.138793  
         C8        1.0000    0.80770   0.82520   0.75170   Biso      1.000     C          -0.085993           
         C9        1.0000    0.86450   0.15740   0.82160   Biso      1.000     C          -0.023882           
         C10       1.0000    0.09950   0.22910   0.00250   Biso      1.000     C          0.138796  
         C11       1.0000    0.17480   0.30770   0.00170   Biso      1.000     C          -0.085989           
         C12       1.0000    0.80770   0.67480   0.49830   Biso      1.000     C          -0.085992           
         C13       1.0000    0.13550   0.84260   0.82160   Biso      1.000     C          -0.023882           
         C14       1.0000    0.15740   0.86450   0.17840   Biso      1.000     C          -0.023883           
         C15       1.0000    0.90050   0.77090   0.00250   Biso      1.000     C          0.138793  
         C16       1.0000    0.72910   0.59950   0.49750   Biso      1.000     C          0.138792  
         C17       1.0000    0.63550   0.34260   0.32160   Biso      1.000     C          -0.023882           
         C18       1.0000    0.40050   0.27090   0.50250   Biso      1.000     C          0.138795  
         C19       1.0000    0.32520   0.19230   0.50170   Biso      1.000     C          -0.085991           
         C20       1.0000    0.65740   0.36450   0.67840   Biso      1.000     C          -0.023883           
         C21       1.0000    0.34260   0.63550   0.67840   Biso      1.000     C          -0.023882           
         C22       1.0000    0.27090   0.40050   0.49750   Biso      1.000     C          0.138795  
         C23       1.0000    0.19230   0.32520   0.49830   Biso      1.000     C          -0.085991           
         C24       1.0000    0.84260   0.13550   0.17840   Biso      1.000     C          -0.023882           
         C25       1.0000    0.77090   0.90050   0.99750   Biso      1.000     C          0.138794  
         C26       1.0000    0.69230   0.82520   0.99830   Biso      1.000     C          -0.085989           
         C27       1.0000    0.30770   0.17480   0.99830   Biso      1.000     C          -0.08599  
         C28       1.0000    0.82520   0.69230   0.00170   Biso      1.000     C          -0.085988           
         C29       1.0000    0.72040   0.77960   0.25000   Biso      1.000     C          0.087788  
         C30       1.0000    0.77960   0.77960   0.50000   Biso      1.000     C          0.087791  
         C31       1.0000    0.32520   0.30770   0.74830   Biso      1.000     C          -0.085989           
         C32       1.0000    0.34260   0.86450   0.57160   Biso      1.000     C          -0.023883           
         C33       1.0000    0.27090   0.09950   0.75250   Biso      1.000     C          0.138795  
         C34       1.0000    0.19230   0.17480   0.75170   Biso      1.000     C          -0.08599  
         C35       1.0000    0.15740   0.63550   0.07160   Biso      1.000     C          -0.023883           
         C36       1.0000    0.84260   0.36450   0.07160   Biso      1.000     C          -0.023883           
         C37       1.0000    0.77090   0.59950   0.25250   Biso      1.000     C          0.138795  
         C38       1.0000    0.69230   0.67480   0.25170   Biso      1.000     C          -0.085989           
         C39       1.0000    0.22910   0.40050   0.25250   Biso      1.000     C          0.138795  
         C40       1.0000    0.13550   0.65740   0.42840   Biso      1.000     C          -0.023883           
         C41       1.0000    0.90050   0.72910   0.24750   Biso      1.000     C          0.138795  
         C42       1.0000    0.82520   0.80770   0.24830   Biso      1.000     C          -0.085991           
         C43       1.0000    0.27960   0.27960   0.00000   Biso      1.000     C          0.087787  
         C44       1.0000    0.63550   0.15740   0.92840   Biso      1.000     C          -0.023882           
         C45       1.0000    0.40050   0.22910   0.74750   Biso      1.000     C          0.138796  
         C46       1.0000    0.22040   0.27960   0.75000   Biso      1.000     C          0.087788  
         C47       1.0000    0.22910   0.09950   0.99750   Biso      1.000     C          0.138798  
         C48       1.0000    0.36450   0.84260   0.92840   Biso      1.000     C          -0.023883           
         C49       1.0000    0.72040   0.72040   0.00000   Biso      1.000     C          0.087788  
         C50       1.0000    0.27960   0.22040   0.25000   Biso      1.000     C          0.087788  
         C51       1.0000    0.09950   0.27090   0.24750   Biso      1.000     C          0.138794  
         C52       1.0000    0.86450   0.34260   0.42840   Biso      1.000     C          -0.023883           
         C53       1.0000    0.17480   0.19230   0.24830   Biso      1.000     C          -0.085991           
         C54       1.0000    0.67480   0.69230   0.74830   Biso      1.000     C          -0.085987           
         C55       1.0000    0.59950   0.77090   0.74750   Biso      1.000     C          0.138795  
         C56       1.0000    0.22040   0.22040   0.50000   Biso      1.000     C          0.08778899999999999           
         Cd1       1.0000    0.50000   0.50000   0.50000   Biso      1.000     Cd          0.918402  
         Cd2       1.0000    0.00000   0.00000   0.00000   Biso      1.000     Cd          0.918402  
         Cd3       1.0000    0.00000   0.50000   0.25000   Biso      1.000     Cd          0.918402  
         Cd4       1.0000    0.50000   0.00000   0.75000   Biso      1.000     Cd          0.918402  
         N1        1.0000    0.12670   0.12670   0.00000   Biso      1.000     N          -0.205353           
         N2        1.0000    0.62670   0.62670   0.50000   Biso      1.000     N          -0.205348           
         N3        1.0000    0.60190   0.41490   0.62960   Biso      1.000     N          -0.338753           
         N4        1.0000    0.37330   0.37330   0.50000   Biso      1.000     N          -0.20535  
         N5        1.0000    0.87330   0.87330   0.00000   Biso      1.000     N          -0.20535  
         N6        1.0000    0.39810   0.91490   0.62040   Biso      1.000     N          -0.338753           
         N7        1.0000    0.89810   0.08510   0.12960   Biso      1.000     N          -0.338753           
         N8        1.0000    0.89810   0.41490   0.12040   Biso      1.000     N          -0.338753           
         N9        1.0000    0.08510   0.60190   0.37960   Biso      1.000     N          -0.338753           
         N10       1.0000    0.58510   0.10190   0.87960   Biso      1.000     N          -0.338753           
         N11       1.0000    0.41490   0.89810   0.87960   Biso      1.000     N          -0.338753           
         N12       1.0000    0.91490   0.39810   0.37960   Biso      1.000     N          -0.338753           
         N13       1.0000    0.12670   0.37330   0.25000   Biso      1.000     N          -0.20535  
         N14       1.0000    0.37330   0.12670   0.75000   Biso      1.000     N          -0.20535100000000003          
         N15       1.0000    0.87330   0.62670   0.25000   Biso      1.000     N          -0.20535100000000003          
         N16       1.0000    0.62670   0.87330   0.75000   Biso      1.000     N          -0.205354           
         N17       1.0000    0.60190   0.08510   0.62040   Biso      1.000     N          -0.338753           
         N18       1.0000    0.41490   0.60190   0.37040   Biso      1.000     N          -0.338753           
         N19       1.0000    0.91490   0.10190   0.87040   Biso      1.000     N          -0.338753           
         N20       1.0000    0.08510   0.89810   0.87040   Biso      1.000     N          -0.338753           
         N21       1.0000    0.58510   0.39810   0.37040   Biso      1.000     N          -0.338754           
         N22       1.0000    0.39810   0.58510   0.62960   Biso      1.000     N          -0.338753           
         N23       1.0000    0.10190   0.91490   0.12960   Biso      1.000     N          -0.338753           
         N24       1.0000    0.10190   0.58510   0.12040   Biso      1.000     N          -0.338753 