
##########################################################################
#               Crystallographic Information Format file
#               Produced by PyCifRW module
#
#  This is a CIF file.  CIF has been adopted by the International
#  Union of Crystallography as the standard for data archiving and
#  transmission.
#
#  For information on this file format, follow the CIF links at
#  http://www.iucr.org
##########################################################################

data_image0

_cell_length_a                          7.2259
_cell_length_b                          15.142
_cell_length_c                          18.6983
_cell_angle_alpha                       90
_cell_angle_beta                        90
_cell_angle_gamma                       93.144
_symmetry_space_group_name_H-M          'P 1'
_symmetry_int_tables_number             1
loop_
  _symmetry_equiv_pos_as_xyz
         'x, y, z' 
loop_
  _atom_site_label
  _atom_site_occupancy
  _atom_site_fract_x
  _atom_site_fract_y
  _atom_site_fract_z
  _atom_site_thermal_displace_type
  _atom_site_B_iso_or_equiv
  _atom_site_type_symbol
  _atom_site_charge
         C1        1.0000    0.72980   0.41500   0.61780   Biso      1.000     C          -0.048157           
         C2        1.0000    0.27020   0.08500   0.11780   Biso      1.000     C          -0.048156           
         C3        1.0000    0.87790   0.91710   0.98346   Biso      1.000     C          -0.064591           
         C4        1.0000    0.19630   0.76400   0.81378   Biso      1.000     C          0.235382  
         C5        1.0000    0.41540   0.69000   0.73400   Biso      1.000     C          -0.16909100000000002          
         C6        1.0000    0.76000   0.80470   0.26170   Biso      1.000     C          0.11439400000000001           
         C7        1.0000    0.44960   0.12650   0.81580   Biso      1.000     C          0.07593   
         C8        1.0000    0.19630   0.26400   0.68622   Biso      1.000     C          0.235381  
         C9        1.0000    0.10810   0.11030   0.08675   Biso      1.000     C          -0.074144           
         C10       1.0000    0.15210   0.07190   0.81100   Biso      1.000     C          0.078973  
         C11       1.0000    0.12210   0.08290   0.01654   Biso      1.000     C          -0.064593           
         C12       1.0000    0.89240   0.36540   0.26150   Biso      1.000     C          -0.171975           
         C13       1.0000    0.72980   0.91500   0.88220   Biso      1.000     C          -0.048157           
         C14       1.0000    0.41540   0.19000   0.76600   Biso      1.000     C          -0.169086           
         C15       1.0000    0.24000   0.69530   0.76170   Biso      1.000     C          0.114398  
         C16       1.0000    0.84790   0.92810   0.18900   Biso      1.000     C          0.078971  
         C17       1.0000    0.95610   0.15410   0.12192   Biso      1.000     C          0.29296700000000003           
         C18       1.0000    0.89240   0.86540   0.23850   Biso      1.000     C          -0.171961           
         C19       1.0000    0.84790   0.42810   0.31100   Biso      1.000     C          0.07897699999999999           
         C20       1.0000    0.89190   0.38970   0.58675   Biso      1.000     C          -0.074144           
         C21       1.0000    0.76000   0.30470   0.23830   Biso      1.000     C          0.11440399999999999           
         C22       1.0000    0.55040   0.87350   0.18420   Biso      1.000     C          0.075929  
         C23       1.0000    0.10810   0.61030   0.41325   Biso      1.000     C          -0.074148           
         C24       1.0000    0.58460   0.81000   0.23400   Biso      1.000     C          -0.16908199999999998          
         C25       1.0000    0.04390   0.34590   0.62192   Biso      1.000     C          0.292968  
         C26       1.0000    0.27020   0.58500   0.38220   Biso      1.000     C          -0.048152           
         C27       1.0000    0.44960   0.62650   0.68420   Biso      1.000     C          0.075935  
         C28       1.0000    0.10760   0.13460   0.76150   Biso      1.000     C          -0.171972           
         C29       1.0000    0.12210   0.58290   0.48346   Biso      1.000     C          -0.064592           
         C30       1.0000    0.55040   0.37350   0.31580   Biso      1.000     C          0.075929  
         C31       1.0000    0.10760   0.63460   0.73850   Biso      1.000     C          -0.171965           
         C32       1.0000    0.95610   0.65410   0.37808   Biso      1.000     C          0.29296700000000003           
         C33       1.0000    0.04390   0.84590   0.87808   Biso      1.000     C          0.29296700000000003           
         C34       1.0000    0.89190   0.88970   0.91325   Biso      1.000     C          -0.074144           
         C35       1.0000    0.15210   0.57190   0.68900   Biso      1.000     C          0.078976  
         C36       1.0000    0.80370   0.23600   0.18622   Biso      1.000     C          0.235381  
         C37       1.0000    0.87790   0.41710   0.51654   Biso      1.000     C          -0.064591           
         C38       1.0000    0.24000   0.19530   0.73830   Biso      1.000     C          0.114406  
         C39       1.0000    0.58460   0.31000   0.26600   Biso      1.000     C          -0.16908299999999998          
         C40       1.0000    0.80370   0.73600   0.31378   Biso      1.000     C          0.23538299999999998           
         H1        1.0000    0.05970   0.53050   0.67440   Biso      1.000     H          0.084212  
         H2        1.0000    0.96620   0.40910   0.48130   Biso      1.000     H          0.116362  
         H3        1.0000    0.03380   0.59090   0.51870   Biso      1.000     H          0.11636300000000001           
         H4        1.0000    0.69690   0.40500   0.66530   Biso      1.000     H          0.12131199999999999           
         H5        1.0000    0.98740   0.13540   0.74390   Biso      1.000     H          0.13539500000000002           
         H6        1.0000    0.98740   0.63540   0.75610   Biso      1.000     H          0.13539400000000001           
         H7        1.0000    0.56890   0.62460   0.66580   Biso      1.000     H          0.090972  
         H8        1.0000    0.30310   0.09500   0.16530   Biso      1.000     H          0.12131199999999999           
         H9        1.0000    0.94030   0.96950   0.17440   Biso      1.000     H          0.084212  
         H10       1.0000    0.30310   0.59500   0.33470   Biso      1.000     H          0.12131199999999999           
         H11       1.0000    0.05970   0.03050   0.82560   Biso      1.000     H          0.084212  
         H12       1.0000    0.43110   0.87540   0.16580   Biso      1.000     H          0.090973  
         H13       1.0000    0.01260   0.36460   0.24390   Biso      1.000     H          0.13539500000000002           
         H14       1.0000    0.96620   0.90910   0.01870   Biso      1.000     H          0.116362  
         H15       1.0000    0.48930   0.27060   0.25100   Biso      1.000     H          0.138521  
         H16       1.0000    0.94030   0.46950   0.32560   Biso      1.000     H          0.08421100000000001           
         H17       1.0000    0.69690   0.90500   0.83470   Biso      1.000     H          0.12131199999999999           
         H18       1.0000    0.01260   0.86460   0.25610   Biso      1.000     H          0.13539400000000001           
         H19       1.0000    0.48930   0.77060   0.24900   Biso      1.000     H          0.138521  
         H20       1.0000    0.43110   0.37540   0.33420   Biso      1.000     H          0.090973  
         H21       1.0000    0.51070   0.22940   0.75100   Biso      1.000     H          0.138521  
         H22       1.0000    0.51070   0.72940   0.74900   Biso      1.000     H          0.138521  
         H23       1.0000    0.03380   0.09090   0.98130   Biso      1.000     H          0.11636300000000001           
         H24       1.0000    0.56890   0.12460   0.83420   Biso      1.000     H          0.090973  
         N1        1.0000    0.32040   0.56750   0.66093   Biso      1.000     N          -0.206409           
         N2        1.0000    0.37250   0.54420   0.42961   Biso      1.000     N          -0.164404           
         N3        1.0000    0.22320   0.37211   0.61464   Biso      1.000     N          -0.254171           
         N4        1.0000    0.37250   0.04420   0.07039   Biso      1.000     N          -0.164403           
         N5        1.0000    0.01860   0.77820   0.83319   Biso      1.000     N          -0.45360200000000006          
         N6        1.0000    0.32260   0.31820   0.65661   Biso      1.000     N          -0.277503           
         N7        1.0000    0.32040   0.06750   0.83907   Biso      1.000     N          -0.20640799999999998          
         N8        1.0000    0.71970   0.45656   0.50672   Biso      1.000     N          -0.17433900000000002          
         N9        1.0000    0.28030   0.04344   0.00672   Biso      1.000     N          -0.174326           
         N10       1.0000    0.67960   0.43250   0.33907   Biso      1.000     N          -0.206409           
         N11       1.0000    0.62750   0.45580   0.57039   Biso      1.000     N          -0.16439  
         N12       1.0000    0.67740   0.68180   0.34339   Biso      1.000     N          -0.277508           
         N13       1.0000    0.67960   0.93250   0.16093   Biso      1.000     N          -0.20640799999999998          
         N14       1.0000    0.01860   0.27820   0.66681   Biso      1.000     N          -0.45360100000000003          
         N15       1.0000    0.28030   0.54344   0.49328   Biso      1.000     N          -0.174326           
         N16       1.0000    0.71970   0.95656   0.99328   Biso      1.000     N          -0.17433900000000002          
         N17       1.0000    0.32260   0.81820   0.84339   Biso      1.000     N          -0.277508           
         N18       1.0000    0.98140   0.72180   0.33319   Biso      1.000     N          -0.45360200000000006          
         N19       1.0000    0.77680   0.12789   0.11464   Biso      1.000     N          -0.25417199999999995          
         N20       1.0000    0.77680   0.62789   0.38536   Biso      1.000     N          -0.254166           
         N21       1.0000    0.67740   0.18180   0.15661   Biso      1.000     N          -0.277503           
         N22       1.0000    0.62750   0.95580   0.92961   Biso      1.000     N          -0.16439  
         N23       1.0000    0.98140   0.22180   0.16681   Biso      1.000     N          -0.45360100000000003          
         N24       1.0000    0.22320   0.87211   0.88536   Biso      1.000     N          -0.254166           
         Zn1       1.0000    0.63753   0.01923   0.07967   Biso      1.000     Zn          0.573932  
         Zn2       1.0000    0.63753   0.51923   0.42033   Biso      1.000     Zn          0.5739310000000001  
         Zn3       1.0000    0.36247   0.48077   0.57967   Biso      1.000     Zn          0.573929  
         Zn4       1.0000    0.36247   0.98077   0.92033   Biso      1.000     Zn          0.573928 