
##########################################################################
#               Crystallographic Information Format file
#               Produced by PyCifRW module
#
#  This is a CIF file.  CIF has been adopted by the International
#  Union of Crystallography as the standard for data archiving and
#  transmission.
#
#  For information on this file format, follow the CIF links at
#  http://www.iucr.org
##########################################################################

data_image0

_cell_length_a                          8.9367
_cell_length_b                          9.4944
_cell_length_c                          11.9769
_cell_angle_alpha                       83.967
_cell_angle_beta                        73.74
_cell_angle_gamma                       67.598
_symmetry_space_group_name_H-M          'P 1'
_symmetry_int_tables_number             1
loop_
  _symmetry_equiv_pos_as_xyz
         'x, y, z' 
loop_
  _atom_site_label
  _atom_site_occupancy
  _atom_site_fract_x
  _atom_site_fract_y
  _atom_site_fract_z
  _atom_site_thermal_displace_type
  _atom_site_B_iso_or_equiv
  _atom_site_type_symbol
  _atom_site_charge
         C1        1.0000    0.29560   0.64120   0.05380   Biso      1.000     C          0.6657890000000001  
         C2        1.0000    0.03840   0.01690   0.29980   Biso      1.000     C          -0.20719200000000002          
         C3        1.0000    0.31770   0.98590   0.33040   Biso      1.000     C          0.627228  
         C4        1.0000    0.02740   0.84910   0.15480   Biso      1.000     C          -0.209081           
         C5        1.0000    0.21640   0.80230   0.10450   Biso      1.000     C          -0.128942           
         C6        1.0000    0.78360   0.19770   0.89550   Biso      1.000     C          -0.128889           
         C7        1.0000    0.22680   0.97490   0.24600   Biso      1.000     C          -0.114266           
         C8        1.0000    0.23340   0.93540   0.75290   Biso      1.000     C          0.639604  
         C9        1.0000    0.30470   0.81090   0.19420   Biso      1.000     C          -0.21975  
         C10       1.0000    0.77320   0.02510   0.75400   Biso      1.000     C          -0.11421600000000001          
         C11       1.0000    0.97260   0.15090   0.84520   Biso      1.000     C          -0.209065           
         C12       1.0000    0.70440   0.35880   0.94620   Biso      1.000     C          0.6659010000000001  
         C13       1.0000    0.96160   0.98310   0.70020   Biso      1.000     C          -0.20713299999999998          
         C14       1.0000    0.04570   0.98850   0.79240   Biso      1.000     C          -0.11065599999999999          
         C15       1.0000    0.68230   0.01410   0.66960   Biso      1.000     C          0.627124  
         C16       1.0000    0.76660   0.06460   0.24710   Biso      1.000     C          0.6396850000000001  
         C17       1.0000    0.95430   0.01150   0.20760   Biso      1.000     C          -0.11072  
         C18       1.0000    0.69530   0.18910   0.80580   Biso      1.000     C          -0.21970100000000004          
         H1        1.0000    0.24210   0.04730   0.18080   Biso      1.000     H          0.029704  
         H2        1.0000    0.00350   0.77600   0.21580   Biso      1.000     H          0.103344  
         H3        1.0000    0.99650   0.22400   0.78420   Biso      1.000     H          0.103333  
         H4        1.0000    0.01960   0.94450   0.36300   Biso      1.000     H          0.119174  
         H5        1.0000    0.29240   0.73660   0.25710   Biso      1.000     H          0.110124  
         H6        1.0000    0.98250   0.08100   0.14340   Biso      1.000     H          0.09716699999999999           
         H7        1.0000    0.42580   0.78490   0.15690   Biso      1.000     H          0.082608  
         H8        1.0000    0.23640   0.87420   0.04000   Biso      1.000     H          0.084463  
         H9        1.0000    0.75790   0.95270   0.81920   Biso      1.000     H          0.029218  
         H10       1.0000    0.98910   0.12050   0.33370   Biso      1.000     H          0.11091500000000001           
         H11       1.0000    0.97430   0.84810   0.09280   Biso      1.000     H          0.111443  
         H12       1.0000    0.01090   0.87950   0.66630   Biso      1.000     H          0.11088800000000001           
         H13       1.0000    0.01750   0.91900   0.85660   Biso      1.000     H          0.097206  
         H14       1.0000    0.70760   0.26340   0.74290   Biso      1.000     H          0.110106  
         H15       1.0000    0.98040   0.05550   0.63700   Biso      1.000     H          0.11915799999999999           
         H16       1.0000    0.57420   0.21510   0.84310   Biso      1.000     H          0.082595  
         H17       1.0000    0.02570   0.15190   0.90720   Biso      1.000     H          0.11146500000000001           
         H18       1.0000    0.76360   0.12580   0.96000   Biso      1.000     H          0.084584  
         O1        1.0000    0.68980   0.10150   0.16810   Biso      1.000     O          -0.571491           
         O2        1.0000    0.59720   0.92690   0.69060   Biso      1.000     O          -0.677823           
         O3        1.0000    0.31020   0.89850   0.83190   Biso      1.000     O          -0.571335           
         O4        1.0000    0.40280   0.07310   0.30940   Biso      1.000     O          -0.678258           
         O5        1.0000    0.26550   0.53730   0.11890   Biso      1.000     O          -0.612799           
         O6        1.0000    0.61770   0.38130   0.04960   Biso      1.000     O          -0.5720189999999999           
         O7        1.0000    0.31540   0.91100   0.42200   Biso      1.000     O          -0.525526           
         O8        1.0000    0.68460   0.08900   0.57800   Biso      1.000     O          -0.525609           
         O9        1.0000    0.38230   0.61870   0.95040   Biso      1.000     O          -0.571879           
         O10       1.0000    0.30380   0.92630   0.64610   Biso      1.000     O          -0.594956           
         O11       1.0000    0.73450   0.46270   0.88110   Biso      1.000     O          -0.612633           
         O12       1.0000    0.69620   0.07370   0.35390   Biso      1.000     O          -0.594897           
         U1        1.0000    0.50000   0.00000   0.50000   Biso      1.000     U          1.207062  
         U2        1.0000    0.42045   0.28966   0.17887   Biso      1.000     U          1.159434  
         U3        1.0000    0.57955   0.71034   0.82113   Biso      1.000     U          1.159514 