
##########################################################################
#               Crystallographic Information Format file
#               Produced by PyCifRW module
#
#  This is a CIF file.  CIF has been adopted by the International
#  Union of Crystallography as the standard for data archiving and
#  transmission.
#
#  For information on this file format, follow the CIF links at
#  http://www.iucr.org
##########################################################################

data_image0

_cell_length_a                          11.3416
_cell_length_b                          14.7404
_cell_length_c                          15.1979
_cell_angle_alpha                       90
_cell_angle_beta                        90
_cell_angle_gamma                       90
_symmetry_space_group_name_H-M          'P 1'
_symmetry_int_tables_number             1
loop_
  _symmetry_equiv_pos_as_xyz
         'x, y, z' 
loop_
  _atom_site_label
  _atom_site_occupancy
  _atom_site_fract_x
  _atom_site_fract_y
  _atom_site_fract_z
  _atom_site_thermal_displace_type
  _atom_site_B_iso_or_equiv
  _atom_site_type_symbol
  _atom_site_charge
         C1        1.0000    0.43130   0.66517   0.79498   Biso      1.000     C          -0.03891  
         C2        1.0000    0.43130   0.66517   0.70502   Biso      1.000     C          -0.038881           
         C3        1.0000    0.79520   0.95429   0.79530   Biso      1.000     C          -0.033639999999999996         
         C4        1.0000    0.50100   0.10406   0.33640   Biso      1.000     C          0.06275   
         C5        1.0000    0.93130   0.83483   0.70502   Biso      1.000     C          -0.038905           
         C6        1.0000    0.78530   0.64557   0.66404   Biso      1.000     C          0.072028  
         C7        1.0000    0.49900   0.89594   0.83640   Biso      1.000     C          0.06276   
         C8        1.0000    0.15640   0.54080   0.13804   Biso      1.000     C          0.093141  
         C9        1.0000    0.68340   0.50590   0.75000   Biso      1.000     C          -0.024681           
         C10       1.0000    0.84360   0.45920   0.86196   Biso      1.000     C          0.093206  
         C11       1.0000    0.56870   0.33483   0.29498   Biso      1.000     C          -0.038896           
         C12       1.0000    0.50810   0.05220   0.75000   Biso      1.000     C          -0.015931           
         C13       1.0000    0.65640   0.95920   0.13804   Biso      1.000     C          0.093157  
         C14       1.0000    0.29520   0.54571   0.70470   Biso      1.000     C          -0.033638999999999995         
         C15       1.0000    0.20480   0.04571   0.20470   Biso      1.000     C          -0.033635000000000005         
         C16       1.0000    0.79520   0.95429   0.70470   Biso      1.000     C          -0.033618           
         C17       1.0000    0.06870   0.16517   0.29498   Biso      1.000     C          -0.038911           
         C18       1.0000    0.56870   0.33483   0.20502   Biso      1.000     C          -0.038867           
         C19       1.0000    0.81660   0.00590   0.25000   Biso      1.000     C          -0.024669999999999997         
         C20       1.0000    0.99190   0.55220   0.25000   Biso      1.000     C          -0.015925           
         C21       1.0000    0.93130   0.83483   0.79498   Biso      1.000     C          -0.038876999999999995         
         C22       1.0000    0.28530   0.85443   0.66404   Biso      1.000     C          0.07202599999999999           
         C23       1.0000    0.49900   0.89594   0.66360   Biso      1.000     C          0.062775  
         C24       1.0000    0.50100   0.10406   0.16360   Biso      1.000     C          0.062761  
         C25       1.0000    0.84360   0.45920   0.63804   Biso      1.000     C          0.093174  
         C26       1.0000    0.21470   0.35443   0.16404   Biso      1.000     C          0.072019  
         C27       1.0000    0.99900   0.60406   0.66360   Biso      1.000     C          0.062769  
         C28       1.0000    0.18340   0.99410   0.75000   Biso      1.000     C          -0.024672           
         C29       1.0000    0.78530   0.64557   0.83596   Biso      1.000     C          0.072015  
         C30       1.0000    0.71470   0.14557   0.33596   Biso      1.000     C          0.072023  
         C31       1.0000    0.34360   0.04080   0.86196   Biso      1.000     C          0.093174  
         C32       1.0000    0.00100   0.39594   0.16360   Biso      1.000     C          0.062794  
         C33       1.0000    0.21470   0.35443   0.33596   Biso      1.000     C          0.072009  
         C34       1.0000    0.15640   0.54080   0.36196   Biso      1.000     C          0.093169  
         C35       1.0000    0.31660   0.49410   0.25000   Biso      1.000     C          -0.024656           
         C36       1.0000    0.00810   0.44780   0.75000   Biso      1.000     C          -0.015939           
         C37       1.0000    0.34360   0.04080   0.63804   Biso      1.000     C          0.093159  
         C38       1.0000    0.29520   0.54571   0.79530   Biso      1.000     C          -0.033624           
         C39       1.0000    0.49190   0.94780   0.25000   Biso      1.000     C          -0.015925           
         C40       1.0000    0.00100   0.39594   0.33640   Biso      1.000     C          0.062764  
         C41       1.0000    0.70480   0.45429   0.20470   Biso      1.000     C          -0.033625999999999996         
         C42       1.0000    0.65640   0.95920   0.36196   Biso      1.000     C          0.093175  
         C43       1.0000    0.28530   0.85443   0.83596   Biso      1.000     C          0.072005  
         C44       1.0000    0.71470   0.14557   0.16404   Biso      1.000     C          0.072049  
         C45       1.0000    0.06870   0.16517   0.20502   Biso      1.000     C          -0.038885           
         C46       1.0000    0.20480   0.04571   0.29530   Biso      1.000     C          -0.033621           
         C47       1.0000    0.70480   0.45429   0.29530   Biso      1.000     C          -0.033611           
         C48       1.0000    0.99900   0.60406   0.83640   Biso      1.000     C          0.06274500000000001           
         H1        1.0000    0.51910   0.29580   0.17440   Biso      1.000     H          0.14519   
         H2        1.0000    0.25140   0.50270   0.82600   Biso      1.000     H          0.158146  
         H3        1.0000    0.24860   0.00270   0.17400   Biso      1.000     H          0.158163  
         H4        1.0000    0.48090   0.70420   0.82560   Biso      1.000     H          0.14518   
         H5        1.0000    0.98090   0.79580   0.82560   Biso      1.000     H          0.145181  
         H6        1.0000    0.48090   0.70420   0.67440   Biso      1.000     H          0.145179  
         H7        1.0000    0.24860   0.00270   0.32600   Biso      1.000     H          0.15816   
         H8        1.0000    0.75140   0.99730   0.82600   Biso      1.000     H          0.15815099999999999           
         H9        1.0000    0.74860   0.49730   0.32600   Biso      1.000     H          0.158166  
         H10       1.0000    0.01910   0.20420   0.17440   Biso      1.000     H          0.145178  
         H11       1.0000    0.74860   0.49730   0.17400   Biso      1.000     H          0.158173  
         H12       1.0000    0.25140   0.50270   0.67400   Biso      1.000     H          0.158153  
         H13       1.0000    0.98090   0.79580   0.67440   Biso      1.000     H          0.145181  
         H14       1.0000    0.01910   0.20420   0.32560   Biso      1.000     H          0.145182  
         H15       1.0000    0.75140   0.99730   0.67400   Biso      1.000     H          0.15815099999999999           
         H16       1.0000    0.51910   0.29580   0.32560   Biso      1.000     H          0.14519200000000002           
         Mn1       1.0000    0.19392   0.69358   0.52249   Biso      1.000     Mn          1.010498  
         Mn2       1.0000    0.30608   0.19358   0.02249   Biso      1.000     Mn          1.010468  
         Mn3       1.0000    0.80608   0.30642   0.02249   Biso      1.000     Mn          1.010664  
         Mn4       1.0000    0.30608   0.19358   0.47751   Biso      1.000     Mn          1.010425  
         Mn5       1.0000    0.19392   0.69358   0.97751   Biso      1.000     Mn          1.0103790000000001  
         Mn6       1.0000    0.80608   0.30642   0.47751   Biso      1.000     Mn          1.010505  
         Mn7       1.0000    0.69392   0.80642   0.97751   Biso      1.000     Mn          1.010461  
         Mn8       1.0000    0.69392   0.80642   0.52249   Biso      1.000     Mn          1.010526  
         N1        1.0000    0.83390   0.41182   0.57799   Biso      1.000     N          -0.392133           
         N2        1.0000    0.56930   0.86688   0.88331   Biso      1.000     N          -0.398491           
         N3        1.0000    0.93070   0.36688   0.11669   Biso      1.000     N          -0.398517           
         N4        1.0000    0.24440   0.80034   0.88176   Biso      1.000     N          -0.41716099999999995          
         N5        1.0000    0.33390   0.08818   0.57799   Biso      1.000     N          -0.39211999999999997          
         N6        1.0000    0.85884   0.89188   0.66052   Biso      1.000     N          0.35744899999999996           
         N7        1.0000    0.25560   0.30034   0.11824   Biso      1.000     N          -0.417174           
         N8        1.0000    0.41350   0.51720   0.25000   Biso      1.000     N          -0.363214           
         N9        1.0000    0.06930   0.63312   0.88331   Biso      1.000     N          -0.398472           
         N10       1.0000    0.06930   0.63312   0.61669   Biso      1.000     N          -0.398491           
         N11       1.0000    0.64116   0.39188   0.33948   Biso      1.000     N          0.357453  
         N12       1.0000    0.35884   0.60812   0.66052   Biso      1.000     N          0.357446  
         N13       1.0000    0.16610   0.58818   0.42201   Biso      1.000     N          -0.392117           
         N14       1.0000    0.58650   0.48280   0.75000   Biso      1.000     N          -0.363215           
         N15       1.0000    0.93070   0.36688   0.38331   Biso      1.000     N          -0.398491           
         N16       1.0000    0.74440   0.69966   0.61824   Biso      1.000     N          -0.41718900000000003          
         N17       1.0000    0.66610   0.91182   0.07799   Biso      1.000     N          -0.392112           
         N18       1.0000    0.75560   0.19966   0.38176   Biso      1.000     N          -0.417181           
         N19       1.0000    0.33390   0.08818   0.92201   Biso      1.000     N          -0.39212800000000003          
         N20       1.0000    0.41750   0.89500   0.25000   Biso      1.000     N          -0.368458           
         N21       1.0000    0.16610   0.58818   0.07799   Biso      1.000     N          -0.39209499999999997          
         N22       1.0000    0.56930   0.86688   0.61669   Biso      1.000     N          -0.398503           
         N23       1.0000    0.08250   0.39500   0.75000   Biso      1.000     N          -0.36847199999999997          
         N24       1.0000    0.43070   0.13312   0.38331   Biso      1.000     N          -0.39847899999999997          
         N25       1.0000    0.08650   0.01720   0.75000   Biso      1.000     N          -0.363228           
         N26       1.0000    0.14116   0.10812   0.33948   Biso      1.000     N          0.357451  
         N27       1.0000    0.75560   0.19966   0.11824   Biso      1.000     N          -0.41721099999999994          
         N28       1.0000    0.91750   0.60500   0.25000   Biso      1.000     N          -0.36846100000000004          
         N29       1.0000    0.14116   0.10812   0.16052   Biso      1.000     N          0.357448  
         N30       1.0000    0.43070   0.13312   0.11669   Biso      1.000     N          -0.398484           
         N31       1.0000    0.64116   0.39188   0.16052   Biso      1.000     N          0.357453  
         N32       1.0000    0.58250   0.10500   0.75000   Biso      1.000     N          -0.36848400000000003          
         N33       1.0000    0.35884   0.60812   0.83948   Biso      1.000     N          0.35745   
         N34       1.0000    0.66610   0.91182   0.42201   Biso      1.000     N          -0.392124           
         N35       1.0000    0.25560   0.30034   0.38176   Biso      1.000     N          -0.417163           
         N36       1.0000    0.85884   0.89188   0.83948   Biso      1.000     N          0.357451  
         N37       1.0000    0.83390   0.41182   0.92201   Biso      1.000     N          -0.39215900000000004          
         N38       1.0000    0.74440   0.69966   0.88176   Biso      1.000     N          -0.417175           
         N39       1.0000    0.91350   0.98280   0.25000   Biso      1.000     N          -0.363201           
         N40       1.0000    0.24440   0.80034   0.61824   Biso      1.000     N          -0.41718599999999995          
         O1        1.0000    0.84880   0.88519   0.57490   Biso      1.000     O          -0.458104           
         O2        1.0000    0.15120   0.11481   0.42510   Biso      1.000     O          -0.458075           
         O3        1.0000    0.15120   0.11481   0.07490   Biso      1.000     O          -0.458081           
         O4        1.0000    0.34880   0.61481   0.92510   Biso      1.000     O          -0.45809300000000003          
         O5        1.0000    0.34880   0.61481   0.57490   Biso      1.000     O          -0.458108           
         O6        1.0000    0.65120   0.38519   0.07490   Biso      1.000     O          -0.458074           
         O7        1.0000    0.65120   0.38519   0.42510   Biso      1.000     O          -0.45805500000000005          
         O8        1.0000    0.84880   0.88519   0.92510   Biso      1.000     O          -0.458095           
         W1        1.0000    0.63272   0.04700   0.25000   Biso      1.000     W          0.450607  
         W2        1.0000    0.36728   0.95300   0.75000   Biso      1.000     W          0.45060200000000006           
         W3        1.0000    0.86728   0.54700   0.75000   Biso      1.000     W          0.450603  
         W4        1.0000    0.13272   0.45300   0.25000   Biso      1.000     W          0.450611 