
##########################################################################
#               Crystallographic Information Format file
#               Produced by PyCifRW module
#
#  This is a CIF file.  CIF has been adopted by the International
#  Union of Crystallography as the standard for data archiving and
#  transmission.
#
#  For information on this file format, follow the CIF links at
#  http://www.iucr.org
##########################################################################

data_image0

_cell_length_a                          8.6937
_cell_length_b                          12.0563
_cell_length_c                          20.6607
_cell_angle_alpha                       90
_cell_angle_beta                        90
_cell_angle_gamma                       101.903
_symmetry_space_group_name_H-M          'P 1'
_symmetry_int_tables_number             1
loop_
  _symmetry_equiv_pos_as_xyz
         'x, y, z' 
loop_
  _atom_site_label
  _atom_site_occupancy
  _atom_site_fract_x
  _atom_site_fract_y
  _atom_site_fract_z
  _atom_site_thermal_displace_type
  _atom_site_B_iso_or_equiv
  _atom_site_type_symbol
  _atom_site_charge
         C1        1.0000    0.66000   0.30510   0.25970   Biso      1.000     C          0.490856  
         C2        1.0000    0.09910   0.70210   0.41260   Biso      1.000     C          -0.044111000000000004         
         C3        1.0000    0.03840   0.31700   0.30780   Biso      1.000     C          -0.560579           
         C4        1.0000    0.36970   0.34210   0.50140   Biso      1.000     C          0.555869  
         C5        1.0000    0.94740   0.30330   0.04720   Biso      1.000     C          -0.0728   
         C6        1.0000    0.12140   0.70740   0.82660   Biso      1.000     C          0.21688000000000002           
         C7        1.0000    0.01400   0.73000   0.22530   Biso      1.000     C          -0.546114           
         C8        1.0000    0.43230   0.40900   0.77470   Biso      1.000     C          -0.060027           
         C9        1.0000    0.48600   0.14970   0.95190   Biso      1.000     C          -0.577972           
         C10       1.0000    0.05260   0.69670   0.54720   Biso      1.000     C          -0.072799           
         C11       1.0000    0.58290   0.61700   0.71580   Biso      1.000     C          -0.078431           
         C12       1.0000    0.66300   0.90340   0.45350   Biso      1.000     C          0.21601900000000002           
         C13       1.0000    0.36870   0.50570   0.77750   Biso      1.000     C          -0.038439           
         C14       1.0000    0.54260   0.53810   0.98420   Biso      1.000     C          0.202601  
         C15       1.0000    0.39300   0.49400   0.01500   Biso      1.000     C          -0.54685  
         C16       1.0000    0.12290   0.19420   0.91180   Biso      1.000     C          0.45766899999999994           
         C17       1.0000    0.57430   0.41990   0.74190   Biso      1.000     C          -0.022432           
         C18       1.0000    0.87860   0.29260   0.32660   Biso      1.000     C          0.216881  
         C19       1.0000    0.16440   0.64220   0.52100   Biso      1.000     C          -0.010191           
         C20       1.0000    0.84000   0.28770   0.39880   Biso      1.000     C          0.53005   
         C21       1.0000    0.87890   0.28870   0.60930   Biso      1.000     C          0.587812  
         C22       1.0000    0.33000   0.66240   0.23310   Biso      1.000     C          0.442483  
         C23       1.0000    0.06450   0.65230   0.17320   Biso      1.000     C          0.15953699999999998           
         C24       1.0000    0.18490   0.64670   0.45380   Biso      1.000     C          -0.07030399999999999          
         C25       1.0000    0.56010   0.39240   0.24770   Biso      1.000     C          -0.053114           
         C26       1.0000    0.33700   0.09660   0.95350   Biso      1.000     C          0.21605100000000002           
         C27       1.0000    0.41710   0.38300   0.21580   Biso      1.000     C          -0.078431           
         C28       1.0000    0.99200   0.75750   0.44170   Biso      1.000     C          -0.055825           
         C29       1.0000    0.82670   0.79590   0.51940   Biso      1.000     C          0.46529499999999996           
         C30       1.0000    0.83560   0.35780   0.02100   Biso      1.000     C          -0.010195000000000001         
         C31       1.0000    0.71940   0.42850   0.04150   Biso      1.000     C          0.460791  
         C32       1.0000    0.98600   0.27000   0.72530   Biso      1.000     C          -0.546114           
         C33       1.0000    0.67000   0.33760   0.73310   Biso      1.000     C          0.442483  
         C34       1.0000    0.28060   0.57150   0.54150   Biso      1.000     C          0.46079200000000003           
         C35       1.0000    0.63130   0.49430   0.27750   Biso      1.000     C          -0.038439999999999995         
         C36       1.0000    0.34000   0.69490   0.75970   Biso      1.000     C          0.490856  
         C37       1.0000    0.23160   0.53810   0.81360   Biso      1.000     C          0.465524  
         C38       1.0000    0.43990   0.60760   0.74770   Biso      1.000     C          -0.053114           
         C39       1.0000    0.64900   0.52160   0.71280   Biso      1.000     C          -0.055858000000000005         
         C40       1.0000    0.93550   0.34770   0.67320   Biso      1.000     C          0.15953599999999998           
         C41       1.0000    0.42570   0.58010   0.24190   Biso      1.000     C          -0.022433           
         C42       1.0000    0.16000   0.71230   0.89880   Biso      1.000     C          0.53005   
         C43       1.0000    0.72600   0.42230   0.93150   Biso      1.000     C          0.45673199999999997           
         C44       1.0000    0.60700   0.50600   0.51500   Biso      1.000     C          -0.54685  
         C45       1.0000    0.27400   0.57770   0.43150   Biso      1.000     C          0.456766  
         C46       1.0000    0.45740   0.46190   0.48420   Biso      1.000     C          0.202602  
         C47       1.0000    0.20500   0.49670   0.18700   Biso      1.000     C          0.490025  
         C48       1.0000    0.12110   0.71130   0.10930   Biso      1.000     C          0.587812  
         C49       1.0000    0.00800   0.24250   0.94170   Biso      1.000     C          -0.055825           
         C50       1.0000    0.28130   0.98230   0.00000   Biso      1.000     C          0.56489   
         C51       1.0000    0.76840   0.46190   0.31360   Biso      1.000     C          0.465524  
         C52       1.0000    0.96160   0.68300   0.80780   Biso      1.000     C          -0.560578           
         C53       1.0000    0.63030   0.65790   0.00140   Biso      1.000     C          0.555868  
         C54       1.0000    0.87710   0.80580   0.41180   Biso      1.000     C          0.45766899999999994           
         C55       1.0000    0.56770   0.59100   0.27470   Biso      1.000     C          -0.060025           
         C56       1.0000    0.35100   0.47840   0.21280   Biso      1.000     C          -0.055858000000000005         
         C57       1.0000    0.03910   0.24860   0.00830   Biso      1.000     C          -0.032583           
         C58       1.0000    0.71870   0.01770   0.50000   Biso      1.000     C          0.564891  
         C59       1.0000    0.96090   0.75140   0.50830   Biso      1.000     C          -0.032582           
         C60       1.0000    0.51400   0.85030   0.45190   Biso      1.000     C          -0.577936           
         C61       1.0000    0.90090   0.29790   0.91260   Biso      1.000     C          -0.044116           
         C62       1.0000    0.79500   0.50330   0.68700   Biso      1.000     C          0.490025  
         C63       1.0000    0.17330   0.20410   0.01940   Biso      1.000     C          0.465296  
         C64       1.0000    0.81510   0.35330   0.95380   Biso      1.000     C          -0.070266           
         H1        1.0000    0.01970   0.31410   0.76340   Biso      1.000     H          0.1701    
         H2        1.0000    0.59360   0.50770   0.56060   Biso      1.000     H          0.199157  
         H3        1.0000    0.90900   0.73800   0.82670   Biso      1.000     H          0.18883   
         H4        1.0000    0.07040   0.23840   0.70900   Biso      1.000     H          0.189869  
         H5        1.0000    0.91270   0.60870   0.82240   Biso      1.000     H          0.201985  
         H6        1.0000    0.44760   0.90460   0.45580   Biso      1.000     H          0.189691  
         H7        1.0000    0.96120   0.30340   0.09180   Biso      1.000     H          0.135917  
         H8        1.0000    0.61730   0.65900   0.29360   Biso      1.000     H          0.13644900000000001           
         H9        1.0000    0.35210   0.41870   0.99900   Biso      1.000     H          0.17643499999999998           
         H10       1.0000    0.04530   0.31350   0.26150   Biso      1.000     H          0.190529  
         H11       1.0000    0.09100   0.26200   0.32670   Biso      1.000     H          0.188831  
         H12       1.0000    0.40640   0.49230   0.06060   Biso      1.000     H          0.199157  
         H13       1.0000    0.95470   0.68650   0.76150   Biso      1.000     H          0.190528  
         H14       1.0000    0.50760   0.18960   0.91160   Biso      1.000     H          0.19755599999999998           
         H15       1.0000    0.49240   0.81040   0.41160   Biso      1.000     H          0.197553  
         H16       1.0000    0.67930   0.45820   0.50410   Biso      1.000     H          0.172163  
         H17       1.0000    0.08730   0.39130   0.32240   Biso      1.000     H          0.201985  
         H18       1.0000    0.89810   0.21050   0.73590   Biso      1.000     H          0.197209  
         H19       1.0000    0.50700   0.20270   0.98710   Biso      1.000     H          0.18928299999999998           
         H20       1.0000    0.63270   0.68510   0.69710   Biso      1.000     H          0.13589600000000002           
         H21       1.0000    0.92960   0.76160   0.20900   Biso      1.000     H          0.189869  
         H22       1.0000    0.10190   0.78950   0.23590   Biso      1.000     H          0.197208  
         H23       1.0000    0.98030   0.68590   0.26340   Biso      1.000     H          0.1701    
         H24       1.0000    0.03880   0.69660   0.59180   Biso      1.000     H          0.135917  
         H25       1.0000    0.36730   0.31490   0.19710   Biso      1.000     H          0.13589600000000002           
         H26       1.0000    0.11260   0.70210   0.36790   Biso      1.000     H          0.136241  
         H27       1.0000    0.49300   0.79730   0.48710   Biso      1.000     H          0.189281  
         H28       1.0000    0.38270   0.34100   0.79360   Biso      1.000     H          0.13644900000000001           
         H29       1.0000    0.55240   0.09540   0.95580   Biso      1.000     H          0.189694  
         H30       1.0000    0.32070   0.54180   0.00410   Biso      1.000     H          0.172163  
         H31       1.0000    0.88740   0.29790   0.86790   Biso      1.000     H          0.136241  
         H32       1.0000    0.64790   0.58130   0.49900   Biso      1.000     H          0.17643499999999998           
         N1        1.0000    0.35110   0.54190   0.48720   Biso      1.000     N          -0.26559099999999997          
         N2        1.0000    0.64890   0.45810   0.98720   Biso      1.000     N          -0.26558899999999996          
         N3        1.0000    0.21920   0.63980   0.79600   Biso      1.000     N          -0.23070300000000002          
         N4        1.0000    0.19310   0.60340   0.20120   Biso      1.000     N          -0.261988           
         N5        1.0000    0.77490   0.82950   0.45980   Biso      1.000     N          -0.277321           
         N6        1.0000    0.80690   0.39660   0.70120   Biso      1.000     N          -0.261988           
         N7        1.0000    0.22510   0.17050   0.95980   Biso      1.000     N          -0.277323           
         N8        1.0000    0.78080   0.36020   0.29600   Biso      1.000     N          -0.23070300000000002          
         O1        1.0000    0.10500   0.43850   0.16000   Biso      1.000     O          -0.440114           
         O2        1.0000    0.62700   0.20950   0.24880   Biso      1.000     O          -0.394545           
         O3        1.0000    0.55020   0.73170   0.01680   Biso      1.000     O          -0.554485           
         O4        1.0000    0.78700   0.81490   0.57120   Biso      1.000     O          -0.404304           
         O5        1.0000    0.98360   0.23570   0.58650   Biso      1.000     O          -0.600017           
         O6        1.0000    0.75500   0.29830   0.58670   Biso      1.000     O          -0.501921           
         O7        1.0000    0.64350   0.23740   0.75460   Biso      1.000     O          -0.41437399999999996          
         O8        1.0000    0.35650   0.76260   0.25460   Biso      1.000     O          -0.41437399999999996          
         O9        1.0000    0.67900   0.43910   0.87660   Biso      1.000     O          -0.431005           
         O10       1.0000    0.12220   0.15590   0.85790   Biso      1.000     O          -0.41295699999999996          
         O11       1.0000    0.31240   0.54650   0.59590   Biso      1.000     O          -0.42283699999999996          
         O12       1.0000    0.69910   0.29320   0.41660   Biso      1.000     O          -0.559398           
         O13       1.0000    0.14300   0.95200   0.99730   Biso      1.000     O          -0.563508           
         O14       1.0000    0.85700   0.04800   0.49730   Biso      1.000     O          -0.563508           
         O15       1.0000    0.37300   0.79050   0.74880   Biso      1.000     O          -0.394545           
         O16       1.0000    0.77420   0.67630   0.99810   Biso      1.000     O          -0.509995           
         O17       1.0000    0.89500   0.56150   0.66000   Biso      1.000     O          -0.440114           
         O18       1.0000    0.14600   0.46490   0.84720   Biso      1.000     O          -0.454895           
         O19       1.0000    0.61420   0.07650   0.50390   Biso      1.000     O          -0.5332680000000001           
         O20       1.0000    0.68760   0.45350   0.09590   Biso      1.000     O          -0.42283699999999996          
         O21       1.0000    0.38580   0.92350   0.00390   Biso      1.000     O          -0.5332680000000001           
         O22       1.0000    0.92640   0.27670   0.44510   Biso      1.000     O          -0.571175           
         O23       1.0000    0.01640   0.76430   0.08650   Biso      1.000     O          -0.600017           
         O24       1.0000    0.21300   0.18510   0.07120   Biso      1.000     O          -0.404304           
         O25       1.0000    0.22580   0.32370   0.49810   Biso      1.000     O          -0.509995           
         O26       1.0000    0.24500   0.70170   0.08670   Biso      1.000     O          -0.50192  
         O27       1.0000    0.44980   0.26830   0.51680   Biso      1.000     O          -0.554485           
         O28       1.0000    0.32100   0.56090   0.37660   Biso      1.000     O          -0.431008           
         O29       1.0000    0.30090   0.70680   0.91660   Biso      1.000     O          -0.559398           
         O30       1.0000    0.85400   0.53510   0.34720   Biso      1.000     O          -0.454895           
         O31       1.0000    0.87780   0.84410   0.35790   Biso      1.000     O          -0.41295699999999996          
         O32       1.0000    0.07360   0.72330   0.94510   Biso      1.000     O          -0.571175           
         Zn1       1.0000    0.05371   0.17922   0.50210   Biso      1.000     Zn          1.078671  
         Zn2       1.0000    0.33939   0.76049   0.00630   Biso      1.000     Zn          0.980951  
         Zn3       1.0000    0.94629   0.82078   0.00210   Biso      1.000     Zn          1.0786719999999999  
         Zn4       1.0000    0.66061   0.23951   0.50630   Biso      1.000     Zn          0.980952 