
##########################################################################
#               Crystallographic Information Format file
#               Produced by PyCifRW module
#
#  This is a CIF file.  CIF has been adopted by the International
#  Union of Crystallography as the standard for data archiving and
#  transmission.
#
#  For information on this file format, follow the CIF links at
#  http://www.iucr.org
##########################################################################

data_image0

_cell_length_a                          11.361
_cell_length_b                          15.532
_cell_length_c                          16.269
_cell_angle_alpha                       90
_cell_angle_beta                        94.661
_cell_angle_gamma                       90
_symmetry_space_group_name_H-M          'P 1'
_symmetry_int_tables_number             1
loop_
  _symmetry_equiv_pos_as_xyz
         'x, y, z' 
loop_
  _atom_site_label
  _atom_site_occupancy
  _atom_site_fract_x
  _atom_site_fract_y
  _atom_site_fract_z
  _atom_site_thermal_displace_type
  _atom_site_B_iso_or_equiv
  _atom_site_type_symbol
  _atom_site_charge
         C1        1.0000    0.70040   0.83350   0.66690   Biso      1.000     C          -0.26221700000000003          
         C2        1.0000    0.01600   0.26530   0.11800   Biso      1.000     C          0.556739  
         C3        1.0000    0.98400   0.76530   0.38200   Biso      1.000     C          0.556739  
         C4        1.0000    0.77930   0.42140   0.59770   Biso      1.000     C          0.11953499999999999           
         C5        1.0000    0.01700   0.55780   0.62800   Biso      1.000     C          0.585639  
         C6        1.0000    0.45920   0.12490   0.03990   Biso      1.000     C          0.120547  
         C7        1.0000    0.61070   0.85350   0.02950   Biso      1.000     C          -0.21104  
         C8        1.0000    0.45920   0.37510   0.53990   Biso      1.000     C          0.120547  
         C9        1.0000    0.73240   0.85260   0.02780   Biso      1.000     C          0.09968400000000001           
         C10       1.0000    0.92410   0.84630   0.62900   Biso      1.000     C          0.10563099999999999           
         C11       1.0000    0.01700   0.94220   0.12800   Biso      1.000     C          0.585639  
         C12       1.0000    0.61070   0.64650   0.52950   Biso      1.000     C          -0.21103899999999998          
         C13       1.0000    0.71960   0.88630   0.89260   Biso      1.000     C          0.103841  
         C14       1.0000    0.26760   0.14740   0.97220   Biso      1.000     C          0.09968300000000001           
         C15       1.0000    0.59740   0.61060   0.38950   Biso      1.000     C          -0.204263           
         C16       1.0000    0.98300   0.05780   0.87200   Biso      1.000     C          0.585639  
         C17       1.0000    0.03740   0.00970   0.26750   Biso      1.000     C          -0.25861999999999996          
         C18       1.0000    0.98300   0.44220   0.37200   Biso      1.000     C          0.585639  
         C19       1.0000    0.98400   0.73470   0.88200   Biso      1.000     C          0.556739  
         C20       1.0000    0.41030   0.62210   0.45980   Biso      1.000     C          0.10846800000000001           
         C21       1.0000    0.03740   0.49030   0.76750   Biso      1.000     C          -0.258621           
         C22       1.0000    0.03600   0.49640   0.85300   Biso      1.000     C          0.262841  
         C23       1.0000    0.65800   0.07910   0.09940   Biso      1.000     C          -0.187404           
         C24       1.0000    0.00100   0.14820   0.65820   Biso      1.000     C          0.019106  
         C25       1.0000    0.54080   0.87510   0.96010   Biso      1.000     C          0.120554  
         C26       1.0000    0.01600   0.23470   0.61800   Biso      1.000     C          0.556739  
         C27       1.0000    0.41030   0.87790   0.95980   Biso      1.000     C          0.10846800000000001           
         C28       1.0000    0.26760   0.35260   0.47220   Biso      1.000     C          0.09968300000000001           
         C29       1.0000    0.28040   0.38630   0.60740   Biso      1.000     C          0.103841  
         C30       1.0000    0.80080   0.65890   0.15070   Biso      1.000     C          0.005225  
         C31       1.0000    0.35130   0.66700   0.51790   Biso      1.000     C          -0.203191           
         C32       1.0000    0.70040   0.66650   0.16690   Biso      1.000     C          -0.26211100000000004          
         C33       1.0000    0.98400   0.43600   0.28030   Biso      1.000     C          -0.004867           
         C34       1.0000    0.77050   0.33520   0.48530   Biso      1.000     C          0.122967  
         C35       1.0000    0.96400   0.99640   0.64700   Biso      1.000     C          0.26284   
         C36       1.0000    0.80080   0.84110   0.65070   Biso      1.000     C          0.00534   
         C37       1.0000    0.54080   0.62490   0.46010   Biso      1.000     C          0.120555  
         C38       1.0000    0.00310   0.14260   0.74330   Biso      1.000     C          -0.173787           
         C39       1.0000    0.34200   0.92090   0.90060   Biso      1.000     C          -0.187395           
         C40       1.0000    0.40260   0.11060   0.11050   Biso      1.000     C          -0.204261           
         C41       1.0000    0.01600   0.93600   0.21970   Biso      1.000     C          -0.004867           
         C42       1.0000    0.73240   0.64740   0.52780   Biso      1.000     C          0.09968300000000001           
         C43       1.0000    0.59740   0.88940   0.88950   Biso      1.000     C          -0.204262           
         C44       1.0000    0.77050   0.16480   0.98530   Biso      1.000     C          0.122967  
         C45       1.0000    0.99690   0.85740   0.25670   Biso      1.000     C          -0.173786           
         C46       1.0000    0.35130   0.83300   0.01790   Biso      1.000     C          -0.203191           
         C47       1.0000    0.01810   0.57600   0.89030   Biso      1.000     C          -0.21605  
         C48       1.0000    0.07590   0.34630   0.87100   Biso      1.000     C          0.105645  
         C49       1.0000    0.92410   0.65370   0.12900   Biso      1.000     C          0.105645  
         C50       1.0000    0.65800   0.42090   0.59940   Biso      1.000     C          -0.187404           
         C51       1.0000    0.01810   0.92400   0.39030   Biso      1.000     C          -0.21605100000000002          
         C52       1.0000    0.99690   0.64260   0.75670   Biso      1.000     C          -0.173788           
         C53       1.0000    0.19920   0.15890   0.34930   Biso      1.000     C          0.005225  
         C54       1.0000    0.07590   0.15370   0.37100   Biso      1.000     C          0.105645  
         C55       1.0000    0.64870   0.16700   0.98210   Biso      1.000     C          -0.203193           
         C56       1.0000    0.96260   0.99030   0.73250   Biso      1.000     C          -0.25862199999999996          
         C57       1.0000    0.00310   0.35740   0.24330   Biso      1.000     C          -0.173786           
         C58       1.0000    0.77930   0.07860   0.09770   Biso      1.000     C          0.11953399999999999           
         C59       1.0000    0.96400   0.50360   0.14700   Biso      1.000     C          0.262841  
         C60       1.0000    0.29960   0.16650   0.33310   Biso      1.000     C          -0.26211100000000004          
         C61       1.0000    0.22070   0.92140   0.90230   Biso      1.000     C          0.11953299999999999           
         C62       1.0000    0.98190   0.07600   0.60970   Biso      1.000     C          -0.216048           
         C63       1.0000    0.99900   0.85180   0.34180   Biso      1.000     C          0.019108  
         C64       1.0000    0.22950   0.66480   0.51470   Biso      1.000     C          0.122966  
         C65       1.0000    0.19920   0.34110   0.84930   Biso      1.000     C          0.005225  
         C66       1.0000    0.01600   0.56400   0.71970   Biso      1.000     C          -0.0048649999999999995        
         C67       1.0000    0.34200   0.57910   0.40060   Biso      1.000     C          -0.187395           
         C68       1.0000    0.64870   0.33300   0.48210   Biso      1.000     C          -0.203193           
         C69       1.0000    0.58970   0.37790   0.54020   Biso      1.000     C          0.10847799999999999           
         C70       1.0000    0.22070   0.57860   0.40230   Biso      1.000     C          0.11953299999999999           
         C71       1.0000    0.99900   0.64820   0.84180   Biso      1.000     C          0.019108  
         C72       1.0000    0.98190   0.42400   0.10970   Biso      1.000     C          -0.21605  
         C73       1.0000    0.28040   0.11370   0.10740   Biso      1.000     C          0.103841  
         C74       1.0000    0.71960   0.61370   0.39260   Biso      1.000     C          0.103841  
         C75       1.0000    0.29960   0.33350   0.83310   Biso      1.000     C          -0.26211100000000004          
         C76       1.0000    0.38930   0.35350   0.47050   Biso      1.000     C          -0.211033           
         C77       1.0000    0.38930   0.14650   0.97050   Biso      1.000     C          -0.211033           
         C78       1.0000    0.96260   0.50970   0.23250   Biso      1.000     C          -0.258621           
         C79       1.0000    0.03600   0.00360   0.35300   Biso      1.000     C          0.262842  
         C80       1.0000    0.22950   0.83520   0.01470   Biso      1.000     C          0.122966  
         C81       1.0000    0.00100   0.35180   0.15820   Biso      1.000     C          0.019108  
         C82       1.0000    0.58970   0.12210   0.04020   Biso      1.000     C          0.10847799999999999           
         C83       1.0000    0.40260   0.38940   0.61050   Biso      1.000     C          -0.204261           
         C84       1.0000    0.98400   0.06400   0.78030   Biso      1.000     C          -0.0048649999999999995        
         H1        1.0000    0.81600   0.28900   0.45000   Biso      1.000     H          0.10560699999999999           
         H2        1.0000    0.22300   0.16400   0.92800   Biso      1.000     H          0.09829700000000001           
         H3        1.0000    0.60600   0.29600   0.44700   Biso      1.000     H          0.133052  
         H4        1.0000    0.18400   0.78900   0.05000   Biso      1.000     H          0.10560699999999999           
         H5        1.0000    0.01800   0.18600   0.77700   Biso      1.000     H          0.12399   
         H6        1.0000    0.56400   0.90100   0.83400   Biso      1.000     H          0.120887  
         H7        1.0000    0.81600   0.21100   0.95000   Biso      1.000     H          0.10560699999999999           
         H8        1.0000    0.39400   0.79600   0.05300   Biso      1.000     H          0.133052  
         H9        1.0000    0.01400   0.57800   0.95000   Biso      1.000     H          0.139275  
         H10       1.0000    0.94600   0.56500   0.25400   Biso      1.000     H          0.139268  
         H11       1.0000    0.77700   0.83600   0.07200   Biso      1.000     H          0.09829700000000001           
         H12       1.0000    0.23200   0.38300   0.65700   Biso      1.000     H          0.095955  
         H13       1.0000    0.41800   0.15300   0.92300   Biso      1.000     H          0.12881700000000001           
         H14       1.0000    0.82800   0.45900   0.64000   Biso      1.000     H          0.091089  
         H15       1.0000    0.58200   0.84700   0.07700   Biso      1.000     H          0.12881800000000002           
         H16       1.0000    0.43600   0.09900   0.16600   Biso      1.000     H          0.120887  
         H17       1.0000    0.98600   0.07800   0.55000   Biso      1.000     H          0.139275  
         H18       1.0000    0.17200   0.95900   0.86000   Biso      1.000     H          0.091089  
         H19       1.0000    0.60600   0.20400   0.94700   Biso      1.000     H          0.133052  
         H20       1.0000    0.37100   0.18100   0.30200   Biso      1.000     H          0.21222800000000003           
         H21       1.0000    0.76800   0.88300   0.84300   Biso      1.000     H          0.095955  
         H22       1.0000    0.98200   0.68600   0.72300   Biso      1.000     H          0.12398900000000002           
         H23       1.0000    0.39400   0.70400   0.55300   Biso      1.000     H          0.133052  
         H24       1.0000    0.23200   0.11700   0.15700   Biso      1.000     H          0.095955  
         H25       1.0000    0.76800   0.61700   0.34300   Biso      1.000     H          0.095955  
         H26       1.0000    0.82800   0.04100   0.14000   Biso      1.000     H          0.091089  
         H27       1.0000    0.62100   0.02600   0.13400   Biso      1.000     H          0.107366  
         H28       1.0000    0.01400   0.92200   0.45000   Biso      1.000     H          0.139275  
         H29       1.0000    0.05400   0.06500   0.24600   Biso      1.000     H          0.139268  
         H30       1.0000    0.05400   0.43500   0.74600   Biso      1.000     H          0.139268  
         H31       1.0000    0.58200   0.65300   0.57700   Biso      1.000     H          0.12881800000000002           
         H32       1.0000    0.77700   0.66400   0.57200   Biso      1.000     H          0.09829600000000001           
         H33       1.0000    0.62900   0.81900   0.69800   Biso      1.000     H          0.21223699999999998           
         H34       1.0000    0.18400   0.71100   0.55000   Biso      1.000     H          0.10560699999999999           
         H35       1.0000    0.62900   0.68100   0.19800   Biso      1.000     H          0.21222800000000003           
         H36       1.0000    0.98600   0.42200   0.05000   Biso      1.000     H          0.139275  
         H37       1.0000    0.37900   0.97400   0.86600   Biso      1.000     H          0.10736500000000002           
         H38       1.0000    0.22300   0.33600   0.42800   Biso      1.000     H          0.09829700000000001           
         H39       1.0000    0.43600   0.40100   0.66600   Biso      1.000     H          0.120887  
         H40       1.0000    0.37900   0.52600   0.36600   Biso      1.000     H          0.10736500000000002           
         H41       1.0000    0.98200   0.81400   0.22300   Biso      1.000     H          0.12399   
         H42       1.0000    0.41800   0.34700   0.42300   Biso      1.000     H          0.12881700000000001           
         H43       1.0000    0.01800   0.31400   0.27700   Biso      1.000     H          0.12399   
         H44       1.0000    0.94600   0.93500   0.75400   Biso      1.000     H          0.139267  
         H45       1.0000    0.17200   0.54100   0.36000   Biso      1.000     H          0.091089  
         H46       1.0000    0.56400   0.59900   0.33400   Biso      1.000     H          0.120887  
         H47       1.0000    0.62100   0.47400   0.63400   Biso      1.000     H          0.107366  
         H48       1.0000    0.37100   0.31900   0.80200   Biso      1.000     H          0.21222800000000003           
         N1        1.0000    0.78720   0.87100   0.96100   Biso      1.000     N          -0.186728           
         N2        1.0000    0.83600   0.38160   0.54070   Biso      1.000     N          -0.20132  
         N3        1.0000    0.78720   0.62900   0.46100   Biso      1.000     N          -0.186728           
         N4        1.0000    0.16400   0.61840   0.45930   Biso      1.000     N          -0.20132  
         N5        1.0000    0.16400   0.88160   0.95930   Biso      1.000     N          -0.20132  
         N6        1.0000    0.83600   0.11840   0.04070   Biso      1.000     N          -0.20132  
         N7        1.0000    0.21280   0.12900   0.03900   Biso      1.000     N          -0.186727           
         N8        1.0000    0.21280   0.37100   0.53900   Biso      1.000     N          -0.186727           
         O1        1.0000    0.94950   0.92840   0.59436   Biso      1.000     O          -0.156576           
         O2        1.0000    0.96980   0.69925   0.33843   Biso      1.000     O          -0.5657760000000001           
         O3        1.0000    0.04740   0.01194   0.09754   Biso      1.000     O          -0.58632  
         O4        1.0000    0.94950   0.57160   0.09436   Biso      1.000     O          -0.156576           
         O5        1.0000    0.95260   0.51194   0.40246   Biso      1.000     O          -0.58632  
         O6        1.0000    0.01260   0.37595   0.41308   Biso      1.000     O          -0.539058           
         O7        1.0000    0.98740   0.87595   0.08692   Biso      1.000     O          -0.539058           
         O8        1.0000    0.05050   0.42840   0.90564   Biso      1.000     O          -0.156576           
         O9        1.0000    0.01260   0.12405   0.91308   Biso      1.000     O          -0.539058           
         O10       1.0000    0.95260   0.98806   0.90246   Biso      1.000     O          -0.58632  
         O11       1.0000    0.05050   0.07160   0.40564   Biso      1.000     O          -0.156576           
         O12       1.0000    0.98850   0.76194   0.45920   Biso      1.000     O          -0.561934           
         O13       1.0000    0.98850   0.73806   0.95920   Biso      1.000     O          -0.561934           
         O14       1.0000    0.03020   0.30075   0.66157   Biso      1.000     O          -0.5657760000000001           
         O15       1.0000    0.01150   0.23806   0.54080   Biso      1.000     O          -0.561934           
         O16       1.0000    0.98740   0.62405   0.58692   Biso      1.000     O          -0.539058           
         O17       1.0000    0.01150   0.26194   0.04080   Biso      1.000     O          -0.561934           
         O18       1.0000    0.03020   0.19925   0.16157   Biso      1.000     O          -0.5657760000000001           
         O19       1.0000    0.96980   0.80075   0.83843   Biso      1.000     O          -0.5657770000000001           
         O20       1.0000    0.04740   0.48806   0.59754   Biso      1.000     O          -0.58632  
         Zn1       1.0000    0.02421   0.12599   0.03811   Biso      1.000     Zn          0.812962  
         Zn2       1.0000    0.97579   0.62599   0.46189   Biso      1.000     Zn          0.812962  
         Zn3       1.0000    0.97579   0.87401   0.96189   Biso      1.000     Zn          0.812962  
         Zn4       1.0000    0.02421   0.37401   0.53811   Biso      1.000     Zn          0.8129609999999999 