
##########################################################################
#               Crystallographic Information Format file
#               Produced by PyCifRW module
#
#  This is a CIF file.  CIF has been adopted by the International
#  Union of Crystallography as the standard for data archiving and
#  transmission.
#
#  For information on this file format, follow the CIF links at
#  http://www.iucr.org
##########################################################################

data_image0

_cell_length_a                          9.2864
_cell_length_b                          9.884
_cell_length_c                          22.446
_cell_angle_alpha                       90
_cell_angle_beta                        90
_cell_angle_gamma                       116.564
_symmetry_space_group_name_H-M          'P 1'
_symmetry_int_tables_number             1
loop_
  _symmetry_equiv_pos_as_xyz
         'x, y, z' 
loop_
  _atom_site_label
  _atom_site_occupancy
  _atom_site_fract_x
  _atom_site_fract_y
  _atom_site_fract_z
  _atom_site_thermal_displace_type
  _atom_site_B_iso_or_equiv
  _atom_site_type_symbol
  _atom_site_charge
         Ag1       1.0000    0.31779   0.97450   0.35346   Biso      1.000     Ag          0.280705  
         Ag2       1.0000    0.68221   0.52550   0.85346   Biso      1.000     Ag          0.280705  
         Ag3       1.0000    0.68221   0.02550   0.64654   Biso      1.000     Ag          0.280705  
         Ag4       1.0000    0.31779   0.47450   0.14654   Biso      1.000     Ag          0.280705  
         C1        1.0000    0.00740   0.50800   0.53352   Biso      1.000     C          0.492909  
         C2        1.0000    0.98500   0.09610   0.58290   Biso      1.000     C          0.033907  
         C3        1.0000    0.52490   0.00190   0.53340   Biso      1.000     C          0.472664  
         C4        1.0000    0.76190   0.78690   0.46950   Biso      1.000     C          0.630335  
         C5        1.0000    0.01500   0.90390   0.41710   Biso      1.000     C          0.033907  
         C6        1.0000    0.88790   0.91920   0.43360   Biso      1.000     C          -0.068764           
         C7        1.0000    0.87390   0.05420   0.41490   Biso      1.000     C          -0.037036           
         C8        1.0000    0.98690   0.16750   0.38050   Biso      1.000     C          -0.102273           
         C9        1.0000    0.10930   0.14060   0.36450   Biso      1.000     C          0.078527  
         C10       1.0000    0.52970   0.50300   0.61960   Biso      1.000     C          0.613067  
         C11       1.0000    0.48660   0.53860   0.67990   Biso      1.000     C          -0.054921           
         C12       1.0000    0.42420   0.09130   0.70670   Biso      1.000     C          0.092768  
         C13       1.0000    0.37350   0.58570   0.68920   Biso      1.000     C          -0.04368  
         C14       1.0000    0.34230   0.60960   0.74750   Biso      1.000     C          -0.129133           
         C15       1.0000    0.42420   0.59130   0.79330   Biso      1.000     C          0.092797  
         C16       1.0000    0.99260   0.99200   0.03352   Biso      1.000     C          0.492909  
         C17       1.0000    0.47510   0.49810   0.03340   Biso      1.000     C          0.472664  
         C18       1.0000    0.23810   0.71310   0.96950   Biso      1.000     C          0.630335  
         C19       1.0000    0.98500   0.59610   0.91710   Biso      1.000     C          0.033907  
         C20       1.0000    0.56390   0.52180   0.72840   Biso      1.000     C          0.02873   
         C21       1.0000    0.34230   0.10960   0.75250   Biso      1.000     C          -0.129106           
         C22       1.0000    0.48660   0.03860   0.82010   Biso      1.000     C          -0.054921           
         C23       1.0000    0.11210   0.58080   0.93360   Biso      1.000     C          -0.068763           
         C24       1.0000    0.01310   0.83250   0.61950   Biso      1.000     C          -0.102276           
         C25       1.0000    0.89070   0.85940   0.63550   Biso      1.000     C          0.078527  
         C26       1.0000    0.47030   0.49700   0.38040   Biso      1.000     C          0.613065  
         C27       1.0000    0.43610   0.47820   0.27160   Biso      1.000     C          0.028714  
         C28       1.0000    0.51340   0.46140   0.32010   Biso      1.000     C          -0.054906           
         C29       1.0000    0.62650   0.41430   0.31080   Biso      1.000     C          -0.043682           
         C30       1.0000    0.65770   0.39040   0.25250   Biso      1.000     C          -0.129133           
         C31       1.0000    0.57580   0.40870   0.20670   Biso      1.000     C          0.092797  
         C32       1.0000    0.37350   0.08570   0.81080   Biso      1.000     C          -0.043682           
         C33       1.0000    0.00740   0.00800   0.96648   Biso      1.000     C          0.492909  
         C34       1.0000    0.76190   0.28690   0.03050   Biso      1.000     C          0.630335  
         C35       1.0000    0.01500   0.40390   0.08290   Biso      1.000     C          0.033907  
         C36       1.0000    0.88790   0.41920   0.06640   Biso      1.000     C          -0.068764           
         C37       1.0000    0.87390   0.55420   0.08510   Biso      1.000     C          -0.037036           
         C38       1.0000    0.98690   0.66750   0.11950   Biso      1.000     C          -0.102273           
         C39       1.0000    0.10930   0.64060   0.13550   Biso      1.000     C          0.078527  
         C40       1.0000    0.52970   0.00300   0.88040   Biso      1.000     C          0.613067  
         C41       1.0000    0.56390   0.02180   0.77160   Biso      1.000     C          0.02873   
         C42       1.0000    0.52490   0.50190   0.96660   Biso      1.000     C          0.472664  
         C43       1.0000    0.12610   0.44580   0.91490   Biso      1.000     C          -0.03704  
         C44       1.0000    0.47030   0.99700   0.11960   Biso      1.000     C          0.613065  
         C45       1.0000    0.89070   0.35940   0.86450   Biso      1.000     C          0.078492  
         C46       1.0000    0.99260   0.49200   0.46648   Biso      1.000     C          0.492909  
         C47       1.0000    0.47510   0.99810   0.46660   Biso      1.000     C          0.472664  
         C48       1.0000    0.23810   0.21310   0.53050   Biso      1.000     C          0.630335  
         C49       1.0000    0.01310   0.33250   0.88050   Biso      1.000     C          -0.102239           
         C50       1.0000    0.57580   0.90870   0.29330   Biso      1.000     C          0.092768  
         C51       1.0000    0.11210   0.08080   0.56640   Biso      1.000     C          -0.068764           
         C52       1.0000    0.65770   0.89040   0.24750   Biso      1.000     C          -0.129105           
         C53       1.0000    0.12610   0.94580   0.58510   Biso      1.000     C          -0.037033           
         C54       1.0000    0.43610   0.97820   0.22840   Biso      1.000     C          0.028713  
         C55       1.0000    0.51340   0.96140   0.17990   Biso      1.000     C          -0.054905           
         C56       1.0000    0.62650   0.91430   0.18920   Biso      1.000     C          -0.043684           
         H1        1.0000    0.64270   0.48970   0.72220   Biso      1.000     H          0.09289   
         H2        1.0000    0.31810   0.60180   0.65760   Biso      1.000     H          0.13004   
         H3        1.0000    0.26200   0.63920   0.75510   Biso      1.000     H          0.120493  
         H4        1.0000    0.40120   0.60990   0.83190   Biso      1.000     H          0.098515  
         H5        1.0000    0.96990   0.67890   0.92920   Biso      1.000     H          0.122144  
         H6        1.0000    0.96990   0.17890   0.57080   Biso      1.000     H          0.122144  
         H7        1.0000    0.18900   0.21090   0.34030   Biso      1.000     H          0.084623  
         H8        1.0000    0.81100   0.28910   0.84030   Biso      1.000     H          0.084625  
         H9        1.0000    0.35730   0.01030   0.22220   Biso      1.000     H          0.092891  
         H10       1.0000    0.68190   0.89820   0.15760   Biso      1.000     H          0.13004   
         H11       1.0000    0.73800   0.86080   0.25510   Biso      1.000     H          0.120491  
         H12       1.0000    0.59880   0.89010   0.33190   Biso      1.000     H          0.098517  
         H13       1.0000    0.21660   0.43570   0.92690   Biso      1.000     H          0.111039  
         H14       1.0000    0.02180   0.24560   0.86970   Biso      1.000     H          0.145936  
         H15       1.0000    0.97820   0.25440   0.36970   Biso      1.000     H          0.145938  
         H16       1.0000    0.03010   0.82110   0.42920   Biso      1.000     H          0.122144  
         H17       1.0000    0.21660   0.93570   0.57310   Biso      1.000     H          0.111039  
         H18       1.0000    0.02180   0.74560   0.63030   Biso      1.000     H          0.145938  
         H19       1.0000    0.81100   0.78910   0.65970   Biso      1.000     H          0.084623  
         H20       1.0000    0.35730   0.51030   0.27780   Biso      1.000     H          0.092891  
         H21       1.0000    0.68190   0.39820   0.34240   Biso      1.000     H          0.13004   
         H22       1.0000    0.73800   0.36080   0.24490   Biso      1.000     H          0.120493  
         H23       1.0000    0.78340   0.06430   0.42690   Biso      1.000     H          0.111039  
         H24       1.0000    0.59880   0.39010   0.16810   Biso      1.000     H          0.098515  
         H25       1.0000    0.78340   0.56430   0.07310   Biso      1.000     H          0.111039  
         H26       1.0000    0.97820   0.75440   0.13030   Biso      1.000     H          0.145938  
         H27       1.0000    0.18900   0.71090   0.15970   Biso      1.000     H          0.084623  
         H28       1.0000    0.64270   0.98970   0.77780   Biso      1.000     H          0.09289   
         H29       1.0000    0.31810   0.10180   0.84240   Biso      1.000     H          0.13004   
         H30       1.0000    0.40120   0.10990   0.66810   Biso      1.000     H          0.098517  
         H31       1.0000    0.03010   0.32110   0.07080   Biso      1.000     H          0.122144  
         H32       1.0000    0.26200   0.13920   0.74490   Biso      1.000     H          0.120491  
         La1       1.0000    0.35977   0.11562   0.00884   Biso      1.000     La          1.864394  
         La2       1.0000    0.35977   0.61562   0.49116   Biso      1.000     La          1.864393  
         La3       1.0000    0.64023   0.88438   0.99116   Biso      1.000     La          1.864393  
         La4       1.0000    0.64023   0.38438   0.50884   Biso      1.000     La          1.864393  
         N1        1.0000    0.87580   0.98650   0.61820   Biso      1.000     N          -0.188831           
         N2        1.0000    0.46400   0.45220   0.21570   Biso      1.000     N          -0.162801           
         N3        1.0000    0.53600   0.04780   0.71570   Biso      1.000     N          -0.162799           
         N4        1.0000    0.12420   0.51350   0.11820   Biso      1.000     N          -0.188831           
         N5        1.0000    0.53600   0.54780   0.78430   Biso      1.000     N          -0.162803           
         N6        1.0000    0.87580   0.48650   0.88180   Biso      1.000     N          -0.188827           
         N7        1.0000    0.46400   0.95220   0.28430   Biso      1.000     N          -0.162797           
         N8        1.0000    0.12420   0.01350   0.38180   Biso      1.000     N          -0.188831           
         O1        1.0000    0.46100   0.36450   0.94097   Biso      1.000     O          -0.595913           
         O2        1.0000    0.61630   0.93780   0.88196   Biso      1.000     O          -0.572018           
         O3        1.0000    0.79130   0.18260   0.00655   Biso      1.000     O          -0.662012           
         O4        1.0000    0.63790   0.29300   0.02900   Biso      1.000     O          -0.590248           
         O5        1.0000    0.61820   0.62720   0.94481   Biso      1.000     O          -0.506916           
         O6        1.0000    0.88540   0.94880   0.93585   Biso      1.000     O          -0.552297           
         O7        1.0000    0.38180   0.87280   0.44481   Biso      1.000     O          -0.506916           
         O8        1.0000    0.52010   0.46060   0.42663   Biso      1.000     O          -0.661371           
         O9        1.0000    0.38370   0.56220   0.38196   Biso      1.000     O          -0.572018           
         O10       1.0000    0.20870   0.31740   0.50655   Biso      1.000     O          -0.662012           
         O11       1.0000    0.36210   0.20700   0.52900   Biso      1.000     O          -0.590248           
         O12       1.0000    0.47990   0.03940   0.92663   Biso      1.000     O          -0.66137  
         O13       1.0000    0.53900   0.13550   0.44097   Biso      1.000     O          -0.595913           
         O14       1.0000    0.14070   0.07810   0.94410   Biso      1.000     O          -0.565501           
         O15       1.0000    0.14070   0.57810   0.55590   Biso      1.000     O          -0.5655   
         O16       1.0000    0.79130   0.68260   0.49345   Biso      1.000     O          -0.662012           
         O17       1.0000    0.46100   0.86450   0.55903   Biso      1.000     O          -0.595913           
         O18       1.0000    0.61820   0.12720   0.55519   Biso      1.000     O          -0.506916           
         O19       1.0000    0.63790   0.79300   0.47100   Biso      1.000     O          -0.590248           
         O20       1.0000    0.11460   0.55120   0.43585   Biso      1.000     O          -0.552296           
         O21       1.0000    0.61630   0.43780   0.61804   Biso      1.000     O          -0.572018           
         O22       1.0000    0.47990   0.53940   0.57337   Biso      1.000     O          -0.661371           
         O23       1.0000    0.85930   0.92190   0.05590   Biso      1.000     O          -0.5655   
         O24       1.0000    0.11460   0.05120   0.06415   Biso      1.000     O          -0.552296           
         O25       1.0000    0.53900   0.63550   0.05903   Biso      1.000     O          -0.595913           
         O26       1.0000    0.38180   0.37280   0.05519   Biso      1.000     O          -0.506916           
         O27       1.0000    0.36210   0.70700   0.97100   Biso      1.000     O          -0.590248           
         O28       1.0000    0.20870   0.81740   0.99345   Biso      1.000     O          -0.662012           
         O29       1.0000    0.38370   0.06220   0.11804   Biso      1.000     O          -0.572018           
         O30       1.0000    0.52010   0.96060   0.07337   Biso      1.000     O          -0.661371           
         O31       1.0000    0.88540   0.44880   0.56415   Biso      1.000     O          -0.552296           
         O32       1.0000    0.85930   0.42190   0.44410   Biso      1.000     O          -0.5655 