
##########################################################################
#               Crystallographic Information Format file
#               Produced by PyCifRW module
#
#  This is a CIF file.  CIF has been adopted by the International
#  Union of Crystallography as the standard for data archiving and
#  transmission.
#
#  For information on this file format, follow the CIF links at
#  http://www.iucr.org
##########################################################################

data_image0

_cell_length_a                          14.6675
_cell_length_b                          14.6675
_cell_length_c                          14.6675
_cell_angle_alpha                       60
_cell_angle_beta                        60
_cell_angle_gamma                       60
_symmetry_space_group_name_H-M          'P 1'
_symmetry_int_tables_number             1
loop_
  _symmetry_equiv_pos_as_xyz
         'x, y, z' 
loop_
  _atom_site_label
  _atom_site_occupancy
  _atom_site_fract_x
  _atom_site_fract_y
  _atom_site_fract_z
  _atom_site_thermal_displace_type
  _atom_site_B_iso_or_equiv
  _atom_site_type_symbol
  _atom_site_charge
         C1        1.0000    0.91980   0.08020   0.44840   Biso      1.000     C          -0.100835           
         C2        1.0000    0.44840   0.91980   0.55160   Biso      1.000     C          -0.100831           
         C3        1.0000    0.59620   0.40380   0.00000   Biso      1.000     C          -0.064261           
         C4        1.0000    0.70540   0.29460   0.00000   Biso      1.000     C          0.671752  
         C5        1.0000    0.55160   0.91980   0.44840   Biso      1.000     C          -0.100831           
         C6        1.0000    0.40380   0.59620   0.00000   Biso      1.000     C          -0.064261           
         C7        1.0000    0.29460   0.70540   0.00000   Biso      1.000     C          0.671752  
         C8        1.0000    0.44840   0.08020   0.55160   Biso      1.000     C          -0.100831           
         C9        1.0000    0.00000   0.00000   0.59620   Biso      1.000     C          -0.064262           
         C10       1.0000    0.00000   0.00000   0.70540   Biso      1.000     C          0.671752  
         C11       1.0000    0.08020   0.91980   0.44840   Biso      1.000     C          -0.100835           
         C12       1.0000    0.29460   0.00000   0.00000   Biso      1.000     C          0.67175   
         C13       1.0000    0.00000   0.00000   0.40380   Biso      1.000     C          -0.06421  
         C14       1.0000    0.91980   0.08020   0.55160   Biso      1.000     C          -0.100802           
         C15       1.0000    0.08020   0.44840   0.55160   Biso      1.000     C          -0.100834           
         C16       1.0000    0.55160   0.44840   0.91980   Biso      1.000     C          -0.100806           
         C17       1.0000    0.91980   0.55160   0.44840   Biso      1.000     C          -0.100828           
         C18       1.0000    0.44840   0.55160   0.08020   Biso      1.000     C          -0.100806           
         C19       1.0000    0.55160   0.91980   0.08020   Biso      1.000     C          -0.100834           
         C20       1.0000    0.91980   0.44840   0.08020   Biso      1.000     C          -0.100831           
         C21       1.0000    0.44840   0.08020   0.91980   Biso      1.000     C          -0.100828           
         C22       1.0000    0.08020   0.55160   0.91980   Biso      1.000     C          -0.100831           
         C23       1.0000    0.55160   0.08020   0.44840   Biso      1.000     C          -0.100831           
         C24       1.0000    0.00000   0.00000   0.29460   Biso      1.000     C          0.671748  
         C25       1.0000    0.40380   0.00000   0.00000   Biso      1.000     C          -0.064236           
         C26       1.0000    0.91980   0.55160   0.08020   Biso      1.000     C          -0.100831           
         C27       1.0000    0.70540   0.00000   0.00000   Biso      1.000     C          0.671748  
         C28       1.0000    0.40380   0.00000   0.59620   Biso      1.000     C          -0.064211           
         C29       1.0000    0.29460   0.00000   0.70540   Biso      1.000     C          0.671748  
         C30       1.0000    0.44840   0.55160   0.91980   Biso      1.000     C          -0.100806           
         C31       1.0000    0.59620   0.00000   0.40380   Biso      1.000     C          -0.064211           
         C32       1.0000    0.70540   0.00000   0.29460   Biso      1.000     C          0.671748  
         C33       1.0000    0.55160   0.44840   0.08020   Biso      1.000     C          -0.100806           
         C34       1.0000    0.08020   0.44840   0.91980   Biso      1.000     C          -0.100831           
         C35       1.0000    0.00000   0.59620   0.00000   Biso      1.000     C          -0.064211           
         C36       1.0000    0.44840   0.91980   0.08020   Biso      1.000     C          -0.100806           
         C37       1.0000    0.00000   0.70540   0.00000   Biso      1.000     C          0.671748  
         C38       1.0000    0.00000   0.29460   0.00000   Biso      1.000     C          0.671748  
         C39       1.0000    0.55160   0.08020   0.91980   Biso      1.000     C          -0.100831           
         C40       1.0000    0.00000   0.59620   0.40380   Biso      1.000     C          -0.064237           
         C41       1.0000    0.00000   0.70540   0.29460   Biso      1.000     C          0.67175   
         C42       1.0000    0.91980   0.44840   0.55160   Biso      1.000     C          -0.100831           
         C43       1.0000    0.00000   0.40380   0.59620   Biso      1.000     C          -0.064211           
         C44       1.0000    0.00000   0.29460   0.70540   Biso      1.000     C          0.671748  
         C45       1.0000    0.08020   0.55160   0.44840   Biso      1.000     C          -0.100805           
         C46       1.0000    0.59620   0.00000   0.00000   Biso      1.000     C          -0.06421  
         C47       1.0000    0.00000   0.40380   0.00000   Biso      1.000     C          -0.064211           
         C48       1.0000    0.08020   0.91980   0.55160   Biso      1.000     C          -0.100802           
         H1        1.0000    0.09200   0.09200   0.09200   Biso      1.000     H          0.337812  
         H2        1.0000    0.09200   0.09200   0.72400   Biso      1.000     H          0.337812  
         H3        1.0000    0.59046   0.14751   0.40954   Biso      1.000     H          0.100281  
         H4        1.0000    0.14751   0.40954   0.59046   Biso      1.000     H          0.100281  
         H5        1.0000    0.59046   0.85249   0.14751   Biso      1.000     H          0.100282  
         H6        1.0000    0.85249   0.59046   0.40954   Biso      1.000     H          0.100281  
         H7        1.0000    0.40954   0.14751   0.85249   Biso      1.000     H          0.100281  
         H8        1.0000    0.09200   0.72400   0.09200   Biso      1.000     H          0.337812  
         H9        1.0000    0.40954   0.85249   0.59046   Biso      1.000     H          0.100281  
         H10       1.0000    0.14751   0.59046   0.85249   Biso      1.000     H          0.100282  
         H11       1.0000    0.85249   0.14751   0.40954   Biso      1.000     H          0.100282  
         H12       1.0000    0.14751   0.85249   0.59046   Biso      1.000     H          0.100279  
         H13       1.0000    0.40954   0.59046   0.85249   Biso      1.000     H          0.100279  
         H14       1.0000    0.59046   0.40954   0.14751   Biso      1.000     H          0.100279  
         H15       1.0000    0.40954   0.85249   0.14751   Biso      1.000     H          0.10028   
         H16       1.0000    0.59046   0.14751   0.85249   Biso      1.000     H          0.100281  
         H17       1.0000    0.85249   0.40954   0.59046   Biso      1.000     H          0.100281  
         H18       1.0000    0.14751   0.59046   0.40954   Biso      1.000     H          0.100279  
         H19       1.0000    0.14751   0.40954   0.85249   Biso      1.000     H          0.100282  
         H20       1.0000    0.85249   0.59046   0.14751   Biso      1.000     H          0.100282  
         H21       1.0000    0.59046   0.85249   0.40954   Biso      1.000     H          0.100281  
         H22       1.0000    0.40954   0.14751   0.59046   Biso      1.000     H          0.100281  
         H23       1.0000    0.14751   0.85249   0.40954   Biso      1.000     H          0.100282  
         H24       1.0000    0.72400   0.09200   0.09200   Biso      1.000     H          0.337812  
         H25       1.0000    0.40954   0.59046   0.14751   Biso      1.000     H          0.100279  
         H26       1.0000    0.85249   0.40954   0.14751   Biso      1.000     H          0.100282  
         H27       1.0000    0.59046   0.40954   0.85249   Biso      1.000     H          0.100279  
         H28       1.0000    0.85249   0.14751   0.59046   Biso      1.000     H          0.100279  
         O1        1.0000    0.26860   0.07660   0.92340   Biso      1.000     O          -0.584354           
         O2        1.0000    0.73140   0.26860   0.07660   Biso      1.000     O          -0.584354           
         O3        1.0000    0.26860   0.73140   0.92340   Biso      1.000     O          -0.584354           
         O4        1.0000    0.07660   0.73140   0.92340   Biso      1.000     O          -0.584354           
         O5        1.0000    0.07660   0.92340   0.73140   Biso      1.000     O          -0.584354           
         O6        1.0000    0.94390   0.16830   0.94390   Biso      1.000     O          -1.079936           
         O7        1.0000    0.05610   0.83170   0.05610   Biso      1.000     O          -1.009066           
         O8        1.0000    0.16830   0.94390   0.94390   Biso      1.000     O          -1.079936           
         O9        1.0000    0.83170   0.05610   0.05610   Biso      1.000     O          -1.009066           
         O10       1.0000    0.94390   0.94390   0.94390   Biso      1.000     O          -1.079936           
         O11       1.0000    0.05610   0.05610   0.05610   Biso      1.000     O          -1.009066           
         O12       1.0000    0.94390   0.94390   0.16830   Biso      1.000     O          -1.079936           
         O13       1.0000    0.05610   0.05610   0.83170   Biso      1.000     O          -1.009066           
         O14       1.0000    0.73140   0.07660   0.26860   Biso      1.000     O          -0.584354           
         O15       1.0000    0.92340   0.07660   0.26860   Biso      1.000     O          -0.584354           
         O16       1.0000    0.26860   0.92340   0.07660   Biso      1.000     O          -0.584354           
         O17       1.0000    0.92340   0.26860   0.07660   Biso      1.000     O          -0.584354           
         O18       1.0000    0.92340   0.73140   0.07660   Biso      1.000     O          -0.584354           
         O19       1.0000    0.92340   0.07660   0.73140   Biso      1.000     O          -0.584354           
         O20       1.0000    0.07660   0.26860   0.73140   Biso      1.000     O          -0.584354           
         O21       1.0000    0.07660   0.92340   0.26860   Biso      1.000     O          -0.584354           
         O22       1.0000    0.26860   0.07660   0.73140   Biso      1.000     O          -0.584354           
         O23       1.0000    0.73140   0.07660   0.92340   Biso      1.000     O          -0.584354           
         O24       1.0000    0.73140   0.92340   0.26860   Biso      1.000     O          -0.584354           
         O25       1.0000    0.92340   0.73140   0.26860   Biso      1.000     O          -0.584354           
         O26       1.0000    0.73140   0.26860   0.92340   Biso      1.000     O          -0.584354           
         O27       1.0000    0.07660   0.26860   0.92340   Biso      1.000     O          -0.584354           
         O28       1.0000    0.26860   0.73140   0.07660   Biso      1.000     O          -0.584354           
         O29       1.0000    0.07660   0.73140   0.26860   Biso      1.000     O          -0.584354           
         O30       1.0000    0.73140   0.92340   0.07660   Biso      1.000     O          -0.584354           
         O31       1.0000    0.92340   0.26860   0.73140   Biso      1.000     O          -0.584354           
         O32       1.0000    0.26860   0.92340   0.73140   Biso      1.000     O          -0.584354           
         Zr1       1.0000    0.87960   0.87960   0.12040   Biso      1.000     Zr          2.292     
         Zr2       1.0000    0.12040   0.12040   0.87960   Biso      1.000     Zr          2.292     
         Zr3       1.0000    0.87960   0.12040   0.87960   Biso      1.000     Zr          2.292     
         Zr4       1.0000    0.12040   0.87960   0.12040   Biso      1.000     Zr          2.292     
         Zr5       1.0000    0.12040   0.87960   0.87960   Biso      1.000     Zr          2.292     
         Zr6       1.0000    0.87960   0.12040   0.12040   Biso      1.000     Zr          2.292 