
##########################################################################
#               Crystallographic Information Format file
#               Produced by PyCifRW module
#
#  This is a CIF file.  CIF has been adopted by the International
#  Union of Crystallography as the standard for data archiving and
#  transmission.
#
#  For information on this file format, follow the CIF links at
#  http://www.iucr.org
##########################################################################

data_image0

_cell_length_a                          12.458
_cell_length_b                          12.458
_cell_length_c                          24.673
_cell_angle_alpha                       90
_cell_angle_beta                        90
_cell_angle_gamma                       120
_symmetry_space_group_name_H-M          'P 1'
_symmetry_int_tables_number             1
loop_
  _symmetry_equiv_pos_as_xyz
         'x, y, z' 
loop_
  _atom_site_label
  _atom_site_occupancy
  _atom_site_fract_x
  _atom_site_fract_y
  _atom_site_fract_z
  _atom_site_thermal_displace_type
  _atom_site_B_iso_or_equiv
  _atom_site_type_symbol
  _atom_site_charge
         Au1       1.0000    0.39311   0.78622   0.83333   Biso      1.000     Au          -0.066854           
         Au2       1.0000    0.39311   0.60690   0.50000   Biso      1.000     Au          -0.066942           
         Au3       1.0000    0.21379   0.60690   0.16667   Biso      1.000     Au          -0.066856           
         Au4       1.0000    0.60689   0.21378   0.83333   Biso      1.000     Au          -0.066854           
         Au5       1.0000    0.60689   0.39310   0.50000   Biso      1.000     Au          -0.066942           
         Au6       1.0000    0.78621   0.39310   0.16667   Biso      1.000     Au          -0.066856           
         C1        1.0000    0.88190   0.33710   0.75550   Biso      1.000     C          -0.509937           
         C2        1.0000    0.09360   0.20600   0.07433   Biso      1.000     C          0.578271  
         C3        1.0000    0.78170   0.21990   0.72920   Biso      1.000     C          0.245031  
         C4        1.0000    0.77260   0.10360   0.75470   Biso      1.000     C          -0.044982           
         C5        1.0000    0.79640   0.22310   0.66710   Biso      1.000     C          -0.508164           
         C6        1.0000    0.88760   0.09360   0.74100   Biso      1.000     C          0.578046  
         C7        1.0000    0.45520   0.11810   0.42217   Biso      1.000     C          -0.5098   
         C8        1.0000    0.33100   0.22740   0.42137   Biso      1.000     C          -0.044941           
         C9        1.0000    0.22310   0.42670   0.00043   Biso      1.000     C          -0.508299           
         C10       1.0000    0.20600   0.11240   0.40767   Biso      1.000     C          0.578194  
         C11       1.0000    0.78010   0.56180   0.06253   Biso      1.000     C          0.244889  
         C12       1.0000    0.43820   0.21830   0.39587   Biso      1.000     C          0.244987  
         C13       1.0000    0.33710   0.45520   0.08883   Biso      1.000     C          -0.509998           
         C14       1.0000    0.79400   0.88760   0.40767   Biso      1.000     C          0.578194  
         C15       1.0000    0.21990   0.43820   0.06253   Biso      1.000     C          0.244889  
         C16       1.0000    0.89640   0.66900   0.08803   Biso      1.000     C          -0.044918           
         C17       1.0000    0.57330   0.79640   0.33377   Biso      1.000     C          -0.508019           
         C18       1.0000    0.54480   0.88190   0.42217   Biso      1.000     C          -0.5098   
         C19       1.0000    0.66900   0.77260   0.42137   Biso      1.000     C          -0.04494  
         C20       1.0000    0.56180   0.78170   0.39587   Biso      1.000     C          0.244987  
         C21       1.0000    0.11240   0.90640   0.74100   Biso      1.000     C          0.578046  
         C22       1.0000    0.20360   0.77690   0.66710   Biso      1.000     C          -0.508163           
         C23       1.0000    0.11810   0.66290   0.75550   Biso      1.000     C          -0.509937           
         C24       1.0000    0.22740   0.89640   0.75470   Biso      1.000     C          -0.044981           
         C25       1.0000    0.21830   0.78010   0.72920   Biso      1.000     C          0.24503   
         C26       1.0000    0.10360   0.33100   0.08803   Biso      1.000     C          -0.044918           
         C27       1.0000    0.66290   0.54480   0.08883   Biso      1.000     C          -0.509998           
         C28       1.0000    0.42670   0.20360   0.33377   Biso      1.000     C          -0.508019           
         C29       1.0000    0.90640   0.79400   0.07433   Biso      1.000     C          0.578271  
         C30       1.0000    0.66900   0.89640   0.91197   Biso      1.000     C          -0.044919           
         C31       1.0000    0.77690   0.57330   0.00043   Biso      1.000     C          -0.5083   
         C32       1.0000    0.57330   0.77690   0.99957   Biso      1.000     C          -0.508301           
         C33       1.0000    0.79400   0.90640   0.92567   Biso      1.000     C          0.578272  
         C34       1.0000    0.21990   0.78170   0.27080   Biso      1.000     C          0.245026  
         C35       1.0000    0.10360   0.77260   0.24530   Biso      1.000     C          -0.044981           
         C36       1.0000    0.56180   0.78010   0.93747   Biso      1.000     C          0.24489   
         C37       1.0000    0.33710   0.88190   0.24450   Biso      1.000     C          -0.509942           
         C38       1.0000    0.09360   0.88760   0.25900   Biso      1.000     C          0.578047  
         C39       1.0000    0.21830   0.43820   0.60413   Biso      1.000     C          0.244992  
         C40       1.0000    0.22740   0.33100   0.57863   Biso      1.000     C          -0.044943           
         C41       1.0000    0.11810   0.45520   0.57783   Biso      1.000     C          -0.509796           
         C42       1.0000    0.20360   0.42670   0.66623   Biso      1.000     C          -0.508019           
         C43       1.0000    0.11240   0.20600   0.59233   Biso      1.000     C          0.578193  
         C44       1.0000    0.22310   0.79640   0.33290   Biso      1.000     C          -0.508164           
         C45       1.0000    0.88760   0.79400   0.59233   Biso      1.000     C          0.578193  
         C46       1.0000    0.54480   0.66290   0.91117   Biso      1.000     C          -0.509997           
         C47       1.0000    0.88190   0.54480   0.57783   Biso      1.000     C          -0.509796           
         C48       1.0000    0.43820   0.21990   0.93747   Biso      1.000     C          0.24489   
         C49       1.0000    0.33100   0.10360   0.91197   Biso      1.000     C          -0.044919           
         C50       1.0000    0.79640   0.57330   0.66623   Biso      1.000     C          -0.508018           
         C51       1.0000    0.42670   0.22310   0.99957   Biso      1.000     C          -0.508301           
         C52       1.0000    0.20600   0.09360   0.92567   Biso      1.000     C          0.578272  
         C53       1.0000    0.78010   0.21830   0.27080   Biso      1.000     C          0.245026  
         C54       1.0000    0.45520   0.33710   0.91117   Biso      1.000     C          -0.509997           
         C55       1.0000    0.66290   0.11810   0.24450   Biso      1.000     C          -0.509941           
         C56       1.0000    0.77690   0.20360   0.33290   Biso      1.000     C          -0.508164           
         C57       1.0000    0.90640   0.11240   0.25900   Biso      1.000     C          0.578047  
         C58       1.0000    0.78170   0.56180   0.60413   Biso      1.000     C          0.244991  
         C59       1.0000    0.77260   0.66900   0.57863   Biso      1.000     C          -0.044942           
         C60       1.0000    0.89640   0.22740   0.24530   Biso      1.000     C          -0.044981           
         H1        1.0000    0.49860   0.70570   0.01427   Biso      1.000     H          0.157831  
         H2        1.0000    0.29430   0.79290   0.34760   Biso      1.000     H          0.157745  
         H3        1.0000    0.58270   0.85350   0.01517   Biso      1.000     H          0.159514  
         H4        1.0000    0.64590   0.76960   0.00867   Biso      1.000     H          0.174463  
         H5        1.0000    0.92290   0.64780   0.24470   Biso      1.000     H          0.318845  
         H6        1.0000    0.97490   0.67170   0.30040   Biso      1.000     H          0.320114  
         H7        1.0000    0.33430   0.86640   0.20550   Biso      1.000     H          0.156525  
         H8        1.0000    0.40910   0.88150   0.26040   Biso      1.000     H          0.160781  
         H9        1.0000    0.34400   0.96280   0.25080   Biso      1.000     H          0.17439   
         H10       1.0000    0.14650   0.72920   0.34850   Biso      1.000     H          0.1595    
         H11       1.0000    0.23300   0.34170   0.53833   Biso      1.000     H          0.093835  
         H12       1.0000    0.35220   0.27510   0.57803   Biso      1.000     H          0.318961  
         H13       1.0000    0.32830   0.30320   0.63373   Biso      1.000     H          0.320054  
         H14       1.0000    0.13360   0.46790   0.53883   Biso      1.000     H          0.156498  
         H15       1.0000    0.11850   0.52760   0.59373   Biso      1.000     H          0.160737  
         H16       1.0000    0.03720   0.38120   0.58413   Biso      1.000     H          0.174325  
         H17       1.0000    0.20710   0.50140   0.68093   Biso      1.000     H          0.157657  
         H18       1.0000    0.27080   0.41730   0.68183   Biso      1.000     H          0.15948   
         H19       1.0000    0.12370   0.35410   0.67533   Biso      1.000     H          0.174439  
         H20       1.0000    0.61880   0.65600   0.91747   Biso      1.000     H          0.174425  
         H21       1.0000    0.23040   0.87630   0.34200   Biso      1.000     H          0.174421  
         H22       1.0000    0.47240   0.59090   0.92707   Biso      1.000     H          0.160844  
         H23       1.0000    0.10870   0.76700   0.20500   Biso      1.000     H          0.093861  
         H24       1.0000    0.65830   0.89130   0.87167   Biso      1.000     H          0.09381   
         H25       1.0000    0.29430   0.50140   0.98573   Biso      1.000     H          0.157831  
         H26       1.0000    0.14650   0.41730   0.98483   Biso      1.000     H          0.159515  
         H27       1.0000    0.23040   0.35410   0.99133   Biso      1.000     H          0.174463  
         H28       1.0000    0.64780   0.92290   0.75530   Biso      1.000     H          0.318845  
         H29       1.0000    0.67170   0.97490   0.69960   Biso      1.000     H          0.320114  
         H30       1.0000    0.76700   0.10870   0.79500   Biso      1.000     H          0.093861  
         H31       1.0000    0.86640   0.33430   0.79450   Biso      1.000     H          0.156524  
         H32       1.0000    0.88150   0.40910   0.73960   Biso      1.000     H          0.16078   
         H33       1.0000    0.96280   0.34400   0.74920   Biso      1.000     H          0.174389  
         H34       1.0000    0.79290   0.29430   0.65240   Biso      1.000     H          0.157745  
         H35       1.0000    0.72920   0.14650   0.65150   Biso      1.000     H          0.1595    
         H36       1.0000    0.87630   0.23040   0.65800   Biso      1.000     H          0.174421  
         H37       1.0000    0.27510   0.35220   0.42197   Biso      1.000     H          0.318961  
         H38       1.0000    0.30320   0.32830   0.36627   Biso      1.000     H          0.320054  
         H39       1.0000    0.34170   0.23300   0.46167   Biso      1.000     H          0.093831  
         H40       1.0000    0.46790   0.13360   0.46117   Biso      1.000     H          0.156498  
         H41       1.0000    0.52760   0.11850   0.40627   Biso      1.000     H          0.160737  
         H42       1.0000    0.53210   0.66570   0.87217   Biso      1.000     H          0.156505  
         H43       1.0000    0.50140   0.20710   0.31907   Biso      1.000     H          0.157657  
         H44       1.0000    0.34400   0.38120   0.08253   Biso      1.000     H          0.174425  
         H45       1.0000    0.40910   0.52760   0.07293   Biso      1.000     H          0.160844  
         H46       1.0000    0.33430   0.46790   0.12783   Biso      1.000     H          0.156506  
         H47       1.0000    0.10870   0.34170   0.12833   Biso      1.000     H          0.093812  
         H48       1.0000    0.35220   0.07710   0.75530   Biso      1.000     H          0.318845  
         H49       1.0000    0.32830   0.02510   0.69960   Biso      1.000     H          0.320114  
         H50       1.0000    0.23300   0.89130   0.79500   Biso      1.000     H          0.093861  
         H51       1.0000    0.13360   0.66570   0.79450   Biso      1.000     H          0.156523  
         H52       1.0000    0.11850   0.59090   0.73960   Biso      1.000     H          0.160779  
         H53       1.0000    0.03720   0.65600   0.74920   Biso      1.000     H          0.174389  
         H54       1.0000    0.20710   0.70570   0.65240   Biso      1.000     H          0.157744  
         H55       1.0000    0.27080   0.85350   0.65150   Biso      1.000     H          0.1595    
         H56       1.0000    0.12370   0.76960   0.65800   Biso      1.000     H          0.174422  
         H57       1.0000    0.41730   0.27080   0.31817   Biso      1.000     H          0.15948   
         H58       1.0000    0.72490   0.64780   0.42197   Biso      1.000     H          0.318961  
         H59       1.0000    0.65830   0.76700   0.46167   Biso      1.000     H          0.093831  
         H60       1.0000    0.53210   0.86640   0.46117   Biso      1.000     H          0.156498  
         H61       1.0000    0.47240   0.88150   0.40627   Biso      1.000     H          0.160737  
         H62       1.0000    0.61880   0.96280   0.41587   Biso      1.000     H          0.174325  
         H63       1.0000    0.49860   0.79290   0.31907   Biso      1.000     H          0.157656  
         H64       1.0000    0.58270   0.72920   0.31817   Biso      1.000     H          0.159479  
         H65       1.0000    0.64590   0.87630   0.32467   Biso      1.000     H          0.174438  
         H66       1.0000    0.92290   0.27510   0.08863   Biso      1.000     H          0.318831  
         H67       1.0000    0.97490   0.30320   0.03293   Biso      1.000     H          0.320001  
         H68       1.0000    0.69680   0.67170   0.36627   Biso      1.000     H          0.320054  
         H69       1.0000    0.35410   0.12370   0.32467   Biso      1.000     H          0.174438  
         H70       1.0000    0.38120   0.03720   0.41587   Biso      1.000     H          0.174325  
         H71       1.0000    0.02510   0.69680   0.03293   Biso      1.000     H          0.320001  
         H72       1.0000    0.66570   0.13360   0.20550   Biso      1.000     H          0.156525  
         H73       1.0000    0.07710   0.72490   0.08863   Biso      1.000     H          0.318831  
         H74       1.0000    0.65600   0.03720   0.25080   Biso      1.000     H          0.174389  
         H75       1.0000    0.70570   0.20710   0.34760   Biso      1.000     H          0.157744  
         H76       1.0000    0.85350   0.27080   0.34850   Biso      1.000     H          0.1595    
         H77       1.0000    0.76960   0.12370   0.34200   Biso      1.000     H          0.174421  
         H78       1.0000    0.64780   0.72490   0.57803   Biso      1.000     H          0.318961  
         H79       1.0000    0.67170   0.69680   0.63373   Biso      1.000     H          0.320054  
         H80       1.0000    0.76700   0.65830   0.53833   Biso      1.000     H          0.093835  
         H81       1.0000    0.86640   0.53210   0.53883   Biso      1.000     H          0.156498  
         H82       1.0000    0.88150   0.47240   0.59373   Biso      1.000     H          0.160736  
         H83       1.0000    0.96280   0.61880   0.58413   Biso      1.000     H          0.174324  
         H84       1.0000    0.79290   0.49860   0.68093   Biso      1.000     H          0.157657  
         H85       1.0000    0.72920   0.58270   0.68183   Biso      1.000     H          0.15948   
         H86       1.0000    0.87630   0.64590   0.67533   Biso      1.000     H          0.174438  
         H87       1.0000    0.72490   0.07710   0.91137   Biso      1.000     H          0.318832  
         H88       1.0000    0.69680   0.02510   0.96707   Biso      1.000     H          0.320001  
         H89       1.0000    0.89130   0.23300   0.20500   Biso      1.000     H          0.093861  
         H90       1.0000    0.02510   0.32830   0.30040   Biso      1.000     H          0.320115  
         H91       1.0000    0.59090   0.11850   0.26040   Biso      1.000     H          0.16078   
         H92       1.0000    0.76960   0.64590   0.99133   Biso      1.000     H          0.174463  
         H93       1.0000    0.70570   0.49860   0.98573   Biso      1.000     H          0.157831  
         H94       1.0000    0.66570   0.53210   0.12783   Biso      1.000     H          0.156506  
         H95       1.0000    0.85350   0.58270   0.98483   Biso      1.000     H          0.159515  
         H96       1.0000    0.89130   0.65830   0.12833   Biso      1.000     H          0.093812  
         H97       1.0000    0.27510   0.92290   0.91137   Biso      1.000     H          0.318832  
         H98       1.0000    0.30320   0.97490   0.96707   Biso      1.000     H          0.320001  
         H99       1.0000    0.34170   0.10870   0.87167   Biso      1.000     H          0.09381   
         H100      1.0000    0.46790   0.33430   0.87217   Biso      1.000     H          0.156505  
         H101      1.0000    0.52760   0.40910   0.92707   Biso      1.000     H          0.160843  
         H102      1.0000    0.38120   0.34400   0.91747   Biso      1.000     H          0.174424  
         H103      1.0000    0.50140   0.29430   0.01427   Biso      1.000     H          0.157831  
         H104      1.0000    0.41730   0.14650   0.01517   Biso      1.000     H          0.159514  
         H105      1.0000    0.35410   0.23040   0.00867   Biso      1.000     H          0.174463  
         H106      1.0000    0.07710   0.35220   0.24470   Biso      1.000     H          0.318845  
         H107      1.0000    0.65600   0.61880   0.08253   Biso      1.000     H          0.174424  
         H108      1.0000    0.59090   0.47240   0.07293   Biso      1.000     H          0.160844  
         N1        1.0000    0.34120   0.33060   0.59843   Biso      1.000     N          -0.485388           
         N2        1.0000    0.65880   0.98940   0.73490   Biso      1.000     N          -0.485355           
         N3        1.0000    0.98940   0.33060   0.06823   Biso      1.000     N          -0.48521  
         N4        1.0000    0.66940   0.65880   0.40157   Biso      1.000     N          -0.485391           
         N5        1.0000    0.34120   0.01060   0.73490   Biso      1.000     N          -0.485355           
         N6        1.0000    0.01060   0.34120   0.26510   Biso      1.000     N          -0.485357           
         N7        1.0000    0.33060   0.98940   0.93177   Biso      1.000     N          -0.485212           
         N8        1.0000    0.98940   0.65880   0.26510   Biso      1.000     N          -0.485357           
         N9        1.0000    0.33060   0.34120   0.40157   Biso      1.000     N          -0.485391           
         N10       1.0000    0.01060   0.66940   0.06823   Biso      1.000     N          -0.48521  
         N11       1.0000    0.66940   0.01060   0.93177   Biso      1.000     N          -0.485212           
         N12       1.0000    0.65880   0.66940   0.59843   Biso      1.000     N          -0.485388           
         O1        1.0000    0.12440   0.97200   0.69940   Biso      1.000     O          -0.591553           
         O2        1.0000    0.83060   0.98120   0.43517   Biso      1.000     O          -0.530824           
         O3        1.0000    0.02800   0.15240   0.03273   Biso      1.000     O          -0.591702           
         O4        1.0000    0.15060   0.16940   0.10183   Biso      1.000     O          -0.530947           
         O5        1.0000    0.87560   0.02800   0.69940   Biso      1.000     O          -0.591553           
         O6        1.0000    0.01880   0.16940   0.56483   Biso      1.000     O          -0.530825           
         O7        1.0000    0.15240   0.12440   0.36607   Biso      1.000     O          -0.591756           
         O8        1.0000    0.15060   0.98120   0.23150   Biso      1.000     O          -0.530827           
         O9        1.0000    0.02800   0.87560   0.30060   Biso      1.000     O          -0.591553           
         O10       1.0000    0.01880   0.84940   0.76850   Biso      1.000     O          -0.530827           
         O11       1.0000    0.83060   0.84940   0.89817   Biso      1.000     O          -0.530946           
         O12       1.0000    0.84760   0.97200   0.96727   Biso      1.000     O          -0.591702           
         O13       1.0000    0.98120   0.83060   0.56483   Biso      1.000     O          -0.530825           
         O14       1.0000    0.87560   0.84760   0.63393   Biso      1.000     O          -0.591756           
         O15       1.0000    0.12440   0.15240   0.63393   Biso      1.000     O          -0.591756           
         O16       1.0000    0.84940   0.01880   0.23150   Biso      1.000     O          -0.530827           
         O17       1.0000    0.97200   0.12440   0.30060   Biso      1.000     O          -0.591553           
         O18       1.0000    0.16940   0.15060   0.89817   Biso      1.000     O          -0.530946           
         O19       1.0000    0.15240   0.02800   0.96727   Biso      1.000     O          -0.591702           
         O20       1.0000    0.84940   0.83060   0.10183   Biso      1.000     O          -0.530947           
         O21       1.0000    0.97200   0.84760   0.03273   Biso      1.000     O          -0.591702           
         O22       1.0000    0.16940   0.01880   0.43517   Biso      1.000     O          -0.530823           
         O23       1.0000    0.98120   0.15060   0.76850   Biso      1.000     O          -0.530827           
         O24       1.0000    0.84760   0.87560   0.36607   Biso      1.000     O          -0.591756           
         Pt1       1.0000    0.00000   0.50000   0.26166   Biso      1.000     Pt          0.117632  
         Pt2       1.0000    0.50000   0.00000   0.73834   Biso      1.000     Pt          0.117639  
         Pt3       1.0000    0.50000   0.50000   0.40501   Biso      1.000     Pt          0.117539  
         Pt4       1.0000    0.00000   0.50000   0.07167   Biso      1.000     Pt          0.117506  
         Pt5       1.0000    0.50000   0.00000   0.92833   Biso      1.000     Pt          0.117528  
         Pt6       1.0000    0.50000   0.50000   0.59499   Biso      1.000     Pt          0.117543  
         S1        1.0000    0.21158   0.62949   0.25890   Biso      1.000     S          -0.140989           
         S2        1.0000    0.37051   0.78842   0.74110   Biso      1.000     S          -0.141014           
         S3        1.0000    0.37051   0.58209   0.59223   Biso      1.000     S          -0.140985           
         S4        1.0000    0.41791   0.62949   0.40777   Biso      1.000     S          -0.140968           
         S5        1.0000    0.62949   0.21158   0.74110   Biso      1.000     S          -0.141014           
         S6        1.0000    0.58209   0.37051   0.40777   Biso      1.000     S          -0.140968           
         S7        1.0000    0.78842   0.41791   0.07443   Biso      1.000     S          -0.140931           
         S8        1.0000    0.58209   0.21158   0.92557   Biso      1.000     S          -0.140925           
         S9        1.0000    0.78842   0.37051   0.25890   Biso      1.000     S          -0.14099  
         S10       1.0000    0.62949   0.41791   0.59223   Biso      1.000     S          -0.140985           
         S11       1.0000    0.41791   0.78842   0.92557   Biso      1.000     S          -0.140925           
         S12       1.0000    0.21158   0.58209   0.07443   Biso      1.000     S          -0.140931           
         Zn1       1.0000    0.00000   0.00000   0.00000   Biso      1.000     Zn          0.989076  
         Zn2       1.0000    0.00000   0.00000   0.33333   Biso      1.000     Zn          0.988868  
         Zn3       1.0000    0.00000   0.00000   0.66667   Biso      1.000     Zn          0.98887 