
##########################################################################
#               Crystallographic Information Format file
#               Produced by PyCifRW module
#
#  This is a CIF file.  CIF has been adopted by the International
#  Union of Crystallography as the standard for data archiving and
#  transmission.
#
#  For information on this file format, follow the CIF links at
#  http://www.iucr.org
##########################################################################

data_image0

_cell_length_a                          15.5239
_cell_length_b                          16.0613
_cell_length_c                          17.2322
_cell_angle_alpha                       90
_cell_angle_beta                        90
_cell_angle_gamma                       90
_symmetry_space_group_name_H-M          'P 1'
_symmetry_int_tables_number             1
loop_
  _symmetry_equiv_pos_as_xyz
         'x, y, z' 
loop_
  _atom_site_label
  _atom_site_occupancy
  _atom_site_fract_x
  _atom_site_fract_y
  _atom_site_fract_z
  _atom_site_thermal_displace_type
  _atom_site_B_iso_or_equiv
  _atom_site_type_symbol
  _atom_site_charge
         Ag1       1.0000    0.74151   0.54672   0.59753   Biso      1.000     Ag          0.237236  
         Ag2       1.0000    0.68843   0.18434   0.68335   Biso      1.000     Ag          0.233492  
         Ag3       1.0000    0.80990   0.32417   0.64168   Biso      1.000     Ag          0.105428  
         Ag4       1.0000    0.75849   0.45328   0.09753   Biso      1.000     Ag          0.237238  
         Ag5       1.0000    0.21900   0.20281   0.98171   Biso      1.000     Ag          0.21723299999999998           
         Ag6       1.0000    0.18843   0.31566   0.31665   Biso      1.000     Ag          0.233469  
         Ag7       1.0000    0.80990   0.17583   0.14168   Biso      1.000     Ag          0.105378  
         Ag8       1.0000    0.30990   0.32417   0.85832   Biso      1.000     Ag          0.10538399999999999           
         Ag9       1.0000    0.18843   0.18434   0.81665   Biso      1.000     Ag          0.233469  
         Ag10      1.0000    0.69010   0.67583   0.14168   Biso      1.000     Ag          0.105379  
         Ag11      1.0000    0.71900   0.29719   0.01829   Biso      1.000     Ag          0.21722800000000003           
         Ag12      1.0000    0.25849   0.04672   0.90247   Biso      1.000     Ag          0.23722600000000002           
         Ag13      1.0000    0.81157   0.81566   0.18335   Biso      1.000     Ag          0.233481  
         Ag14      1.0000    0.75849   0.04672   0.59753   Biso      1.000     Ag          0.237246  
         Ag15      1.0000    0.19010   0.67583   0.35832   Biso      1.000     Ag          0.10541800000000001           
         Ag16      1.0000    0.21900   0.29719   0.48171   Biso      1.000     Ag          0.217236  
         Ag17      1.0000    0.19010   0.82417   0.85832   Biso      1.000     Ag          0.10538499999999999           
         Ag18      1.0000    0.78100   0.70281   0.51829   Biso      1.000     Ag          0.217241  
         Ag19      1.0000    0.71900   0.20281   0.51829   Biso      1.000     Ag          0.21725100000000003           
         Ag20      1.0000    0.68843   0.31566   0.18335   Biso      1.000     Ag          0.233467  
         Ag21      1.0000    0.30990   0.17583   0.35832   Biso      1.000     Ag          0.105425  
         Ag22      1.0000    0.81157   0.68434   0.68335   Biso      1.000     Ag          0.233481  
         Ag23      1.0000    0.78100   0.79719   0.01829   Biso      1.000     Ag          0.217231  
         Ag24      1.0000    0.24151   0.95328   0.40247   Biso      1.000     Ag          0.237267  
         Ag25      1.0000    0.74151   0.95328   0.09753   Biso      1.000     Ag          0.237249  
         Ag26      1.0000    0.25849   0.45328   0.40247   Biso      1.000     Ag          0.23726799999999998           
         Ag27      1.0000    0.24151   0.54672   0.90247   Biso      1.000     Ag          0.237236  
         Ag28      1.0000    0.28100   0.70281   0.98171   Biso      1.000     Ag          0.217234  
         Ag29      1.0000    0.31157   0.81566   0.31665   Biso      1.000     Ag          0.233471  
         Ag30      1.0000    0.69010   0.82417   0.64168   Biso      1.000     Ag          0.10543   
         Ag31      1.0000    0.31157   0.68434   0.81665   Biso      1.000     Ag          0.233483  
         Ag32      1.0000    0.28100   0.79719   0.48171   Biso      1.000     Ag          0.217239  
         C1        1.0000    0.11050   0.81140   0.37740   Biso      1.000     C          -0.001033           
         C2        1.0000    0.18680   0.82960   0.37950   Biso      1.000     C          -0.417865           
         C3        1.0000    0.07280   0.00770   0.86500   Biso      1.000     C          0.45178599999999997           
         C4        1.0000    0.98850   0.95970   0.86690   Biso      1.000     C          0.604626  
         C5        1.0000    0.51150   0.45970   0.86690   Biso      1.000     C          0.604626  
         C6        1.0000    0.01870   0.79740   0.37170   Biso      1.000     C          0.034487000000000004          
         C7        1.0000    0.42720   0.99230   0.36500   Biso      1.000     C          0.451792  
         C8        1.0000    0.42720   0.50770   0.86500   Biso      1.000     C          0.45178599999999997           
         C9        1.0000    0.52610   0.31180   0.30300   Biso      1.000     C          0.045107  
         C10       1.0000    0.65080   0.26800   0.35990   Biso      1.000     C          0.11906199999999999           
         C11       1.0000    0.52990   0.26750   0.43440   Biso      1.000     C          0.047359  
         C12       1.0000    0.48130   0.29740   0.37170   Biso      1.000     C          0.034483  
         C13       1.0000    0.38950   0.31140   0.37740   Biso      1.000     C          -0.00103  
         C14       1.0000    0.31320   0.32960   0.37950   Biso      1.000     C          -0.417865           
         C15       1.0000    0.18680   0.67040   0.87950   Biso      1.000     C          -0.41795600000000005          
         C16       1.0000    0.11050   0.68860   0.87740   Biso      1.000     C          -0.000884           
         C17       1.0000    0.51150   0.04030   0.36690   Biso      1.000     C          0.604621  
         C18       1.0000    0.01870   0.70260   0.87170   Biso      1.000     C          0.034481  
         C19       1.0000    0.97010   0.73250   0.93440   Biso      1.000     C          0.047369  
         C20       1.0000    0.84920   0.73200   0.85990   Biso      1.000     C          0.11909000000000002           
         C21       1.0000    0.97390   0.81180   0.30300   Biso      1.000     C          0.045106  
         C22       1.0000    0.97390   0.68820   0.80300   Biso      1.000     C          0.045129  
         C23       1.0000    0.84920   0.76800   0.35990   Biso      1.000     C          0.11906199999999999           
         C24       1.0000    0.97010   0.76750   0.43440   Biso      1.000     C          0.047359  
         C25       1.0000    0.52610   0.18820   0.80300   Biso      1.000     C          0.04513   
         C26       1.0000    0.48130   0.20260   0.87170   Biso      1.000     C          0.034497  
         C27       1.0000    0.65080   0.23200   0.85990   Biso      1.000     C          0.11908800000000001           
         C28       1.0000    0.88950   0.31140   0.12260   Biso      1.000     C          -0.001006           
         C29       1.0000    0.81320   0.32960   0.12050   Biso      1.000     C          -0.41781999999999997          
         C30       1.0000    0.81320   0.17040   0.62050   Biso      1.000     C          -0.417997           
         C31       1.0000    0.88950   0.18860   0.62260   Biso      1.000     C          -0.000906           
         C32       1.0000    0.01150   0.45970   0.63310   Biso      1.000     C          0.604621  
         C33       1.0000    0.92720   0.50770   0.63500   Biso      1.000     C          0.451791  
         C34       1.0000    0.98130   0.20260   0.62830   Biso      1.000     C          0.034476  
         C35       1.0000    0.02990   0.23250   0.56560   Biso      1.000     C          0.047358  
         C36       1.0000    0.68680   0.82960   0.12050   Biso      1.000     C          -0.417951           
         C37       1.0000    0.15080   0.23200   0.64010   Biso      1.000     C          0.11906800000000001           
         C38       1.0000    0.02610   0.18820   0.69700   Biso      1.000     C          0.045107  
         C39       1.0000    0.34920   0.73200   0.64010   Biso      1.000     C          0.11906800000000001           
         C40       1.0000    0.57280   0.00770   0.63500   Biso      1.000     C          0.451791  
         C41       1.0000    0.47010   0.73250   0.56560   Biso      1.000     C          0.04736   
         C42       1.0000    0.51870   0.70260   0.62830   Biso      1.000     C          0.034486  
         C43       1.0000    0.61050   0.68860   0.62260   Biso      1.000     C          -0.001026           
         C44       1.0000    0.68680   0.67040   0.62050   Biso      1.000     C          -0.41786599999999996          
         C45       1.0000    0.48850   0.95970   0.63310   Biso      1.000     C          0.604621  
         C46       1.0000    0.47390   0.68820   0.69700   Biso      1.000     C          0.045107999999999995          
         C47       1.0000    0.02990   0.26750   0.06560   Biso      1.000     C          0.047369  
         C48       1.0000    0.98130   0.29740   0.12830   Biso      1.000     C          0.034492  
         C49       1.0000    0.51870   0.79740   0.12830   Biso      1.000     C          0.034484  
         C50       1.0000    0.61050   0.81140   0.12260   Biso      1.000     C          -0.0008849999999999999        
         C51       1.0000    0.52990   0.23250   0.93440   Biso      1.000     C          0.047369999999999995          
         C52       1.0000    0.98850   0.54030   0.36690   Biso      1.000     C          0.604621  
         C53       1.0000    0.38950   0.18860   0.87740   Biso      1.000     C          -0.001011           
         C54       1.0000    0.31320   0.17040   0.87950   Biso      1.000     C          -0.41782299999999994          
         C55       1.0000    0.15080   0.26800   0.14010   Biso      1.000     C          0.11908599999999998           
         C56       1.0000    0.47010   0.76750   0.06560   Biso      1.000     C          0.047367  
         C57       1.0000    0.34920   0.76800   0.14010   Biso      1.000     C          0.11909000000000002           
         C58       1.0000    0.07280   0.49230   0.36500   Biso      1.000     C          0.451792  
         C59       1.0000    0.92720   0.99230   0.13500   Biso      1.000     C          0.451787  
         C60       1.0000    0.48850   0.54030   0.13310   Biso      1.000     C          0.604627  
         C61       1.0000    0.57280   0.49230   0.13500   Biso      1.000     C          0.451787  
         C62       1.0000    0.01150   0.04030   0.13310   Biso      1.000     C          0.604627  
         C63       1.0000    0.02610   0.31180   0.19700   Biso      1.000     C          0.045127  
         C64       1.0000    0.47390   0.81180   0.19700   Biso      1.000     C          0.045127999999999995          
         F1        1.0000    0.52060   0.42650   0.93960   Biso      1.000     F          -0.27523200000000003          
         F2        1.0000    0.57810   0.50240   0.87420   Biso      1.000     F          -0.175349           
         F3        1.0000    0.51310   0.39320   0.82400   Biso      1.000     F          -0.187291           
         F4        1.0000    0.02060   0.07350   0.06040   Biso      1.000     F          -0.27523200000000003          
         F5        1.0000    0.07810   0.99760   0.12580   Biso      1.000     F          -0.175349           
         F6        1.0000    0.98690   0.60680   0.32400   Biso      1.000     F          -0.18729400000000002          
         F7        1.0000    0.47940   0.92650   0.56040   Biso      1.000     F          -0.275229           
         F8        1.0000    0.92190   0.49760   0.37420   Biso      1.000     F          -0.175353           
         F9        1.0000    0.97940   0.57350   0.43960   Biso      1.000     F          -0.275229           
         F10       1.0000    0.01310   0.10680   0.17600   Biso      1.000     F          -0.18729  
         F11       1.0000    0.51310   0.10680   0.32400   Biso      1.000     F          -0.18729400000000002          
         F12       1.0000    0.48690   0.89320   0.67600   Biso      1.000     F          -0.18729400000000002          
         F13       1.0000    0.42190   0.49760   0.12580   Biso      1.000     F          -0.175349           
         F14       1.0000    0.48690   0.60680   0.17600   Biso      1.000     F          -0.18729  
         F15       1.0000    0.01310   0.39320   0.67600   Biso      1.000     F          -0.18729400000000002          
         F16       1.0000    0.97940   0.92650   0.93960   Biso      1.000     F          -0.27523200000000003          
         F17       1.0000    0.92190   0.00240   0.87420   Biso      1.000     F          -0.175349           
         F18       1.0000    0.98690   0.89320   0.82400   Biso      1.000     F          -0.18729200000000001          
         F19       1.0000    0.07810   0.50240   0.62580   Biso      1.000     F          -0.175353           
         F20       1.0000    0.52060   0.07350   0.43960   Biso      1.000     F          -0.275229           
         F21       1.0000    0.02060   0.42650   0.56040   Biso      1.000     F          -0.27522800000000003          
         F22       1.0000    0.47940   0.57350   0.06040   Biso      1.000     F          -0.27523200000000003          
         F23       1.0000    0.57810   0.99760   0.37420   Biso      1.000     F          -0.175354           
         F24       1.0000    0.42190   0.00240   0.62580   Biso      1.000     F          -0.175353           
         H1        1.0000    0.20960   0.25770   0.14450   Biso      1.000     H          0.06348999999999999           
         H2        1.0000    0.50350   0.83250   0.23980   Biso      1.000     H          0.111561  
         H3        1.0000    0.49650   0.33250   0.26020   Biso      1.000     H          0.11155599999999999           
         H4        1.0000    0.29040   0.75770   0.14450   Biso      1.000     H          0.06348999999999999           
         H5        1.0000    0.70960   0.25770   0.35550   Biso      1.000     H          0.06348   
         H6        1.0000    0.49760   0.75760   0.01850   Biso      1.000     H          0.10854000000000001           
         H7        1.0000    0.00240   0.25760   0.01850   Biso      1.000     H          0.10854100000000001           
         H8        1.0000    0.50240   0.24240   0.98150   Biso      1.000     H          0.10854000000000001           
         H9        1.0000    0.70960   0.24230   0.85550   Biso      1.000     H          0.06349099999999999           
         H10       1.0000    0.50240   0.25760   0.48150   Biso      1.000     H          0.10853499999999999           
         H11       1.0000    0.49650   0.16750   0.76020   Biso      1.000     H          0.111561  
         H12       1.0000    0.99650   0.16750   0.73980   Biso      1.000     H          0.11155599999999999           
         H13       1.0000    0.49760   0.74240   0.51850   Biso      1.000     H          0.108536  
         H14       1.0000    0.29040   0.74230   0.64450   Biso      1.000     H          0.063483  
         H15       1.0000    0.99650   0.33250   0.23980   Biso      1.000     H          0.111561  
         H16       1.0000    0.99760   0.75760   0.48150   Biso      1.000     H          0.10853499999999999           
         H17       1.0000    0.20960   0.24230   0.64450   Biso      1.000     H          0.063483  
         H18       1.0000    0.00240   0.24240   0.51850   Biso      1.000     H          0.108536  
         H19       1.0000    0.50350   0.66750   0.73980   Biso      1.000     H          0.11155599999999999           
         H20       1.0000    0.99760   0.74240   0.98150   Biso      1.000     H          0.10854000000000001           
         H21       1.0000    0.00350   0.66750   0.76020   Biso      1.000     H          0.111561  
         H22       1.0000    0.79040   0.75770   0.35550   Biso      1.000     H          0.06348   
         H23       1.0000    0.79040   0.74230   0.85550   Biso      1.000     H          0.06349099999999999           
         H24       1.0000    0.00350   0.83250   0.26020   Biso      1.000     H          0.111555  
         N1        1.0000    0.38570   0.74720   0.57120   Biso      1.000     N          -0.202783           
         N2        1.0000    0.11060   0.29670   0.20330   Biso      1.000     N          -0.19279200000000002          
         N3        1.0000    0.11430   0.25280   0.07120   Biso      1.000     N          -0.202786           
         N4        1.0000    0.11430   0.24720   0.57120   Biso      1.000     N          -0.202781           
         N5        1.0000    0.38940   0.70330   0.70330   Biso      1.000     N          -0.19279200000000002          
         N6        1.0000    0.11060   0.20330   0.70330   Biso      1.000     N          -0.19278900000000002          
         N7        1.0000    0.61430   0.24720   0.92880   Biso      1.000     N          -0.202785           
         N8        1.0000    0.61060   0.29670   0.29670   Biso      1.000     N          -0.19278900000000002          
         N9        1.0000    0.61430   0.25280   0.42880   Biso      1.000     N          -0.202783           
         N10       1.0000    0.88570   0.74720   0.92880   Biso      1.000     N          -0.202785           
         N11       1.0000    0.61060   0.20330   0.79670   Biso      1.000     N          -0.192794           
         N12       1.0000    0.38940   0.79670   0.20330   Biso      1.000     N          -0.19279200000000002          
         N13       1.0000    0.38570   0.75280   0.07120   Biso      1.000     N          -0.202786           
         N14       1.0000    0.88570   0.75280   0.42880   Biso      1.000     N          -0.202783           
         N15       1.0000    0.88940   0.79670   0.29670   Biso      1.000     N          -0.19279200000000002          
         N16       1.0000    0.88940   0.70330   0.79670   Biso      1.000     N          -0.19279300000000002          
         O1        1.0000    0.56580   0.41710   0.14350   Biso      1.000     O          -0.47674799999999995          
         O2        1.0000    0.63835   0.96480   0.62890   Biso      1.000     O          -0.45034700000000005          
         O3        1.0000    0.56580   0.08290   0.64350   Biso      1.000     O          -0.476767           
         O4        1.0000    0.36165   0.03520   0.37110   Biso      1.000     O          -0.45034700000000005          
         O5        1.0000    0.43420   0.91710   0.35650   Biso      1.000     O          -0.476764           
         O6        1.0000    0.93420   0.58290   0.64350   Biso      1.000     O          -0.47676599999999997          
         O7        1.0000    0.36165   0.46480   0.87110   Biso      1.000     O          -0.450312           
         O8        1.0000    0.63835   0.53520   0.12890   Biso      1.000     O          -0.450309           
         O9        1.0000    0.86165   0.46480   0.62890   Biso      1.000     O          -0.450345           
         O10       1.0000    0.13835   0.96480   0.87110   Biso      1.000     O          -0.45031099999999996          
         O11       1.0000    0.06580   0.08290   0.85650   Biso      1.000     O          -0.47675  
         O12       1.0000    0.13835   0.53520   0.37110   Biso      1.000     O          -0.45034700000000005          
         O13       1.0000    0.93420   0.91710   0.14350   Biso      1.000     O          -0.476749           
         O14       1.0000    0.86165   0.03520   0.12890   Biso      1.000     O          -0.45031099999999996          
         O15       1.0000    0.43420   0.58290   0.85650   Biso      1.000     O          -0.47675100000000004          
         O16       1.0000    0.06580   0.41710   0.35650   Biso      1.000     O          -0.476764 