
##########################################################################
#               Crystallographic Information Format file
#               Produced by PyCifRW module
#
#  This is a CIF file.  CIF has been adopted by the International
#  Union of Crystallography as the standard for data archiving and
#  transmission.
#
#  For information on this file format, follow the CIF links at
#  http://www.iucr.org
##########################################################################

data_image0

_cell_length_a                          6.8656
_cell_length_b                          9.1287
_cell_length_c                          9.9209
_cell_angle_alpha                       101.341
_cell_angle_beta                        99.683
_cell_angle_gamma                       111.95
_symmetry_space_group_name_H-M          'P 1'
_symmetry_int_tables_number             1
loop_
  _symmetry_equiv_pos_as_xyz
         'x, y, z' 
loop_
  _atom_site_label
  _atom_site_occupancy
  _atom_site_fract_x
  _atom_site_fract_y
  _atom_site_fract_z
  _atom_site_thermal_displace_type
  _atom_site_B_iso_or_equiv
  _atom_site_type_symbol
  _atom_site_charge
         C1        1.0000    0.08330   0.31750   0.40980   Biso      1.000     C          -0.004357           
         C2        1.0000    0.82200   0.59800   0.69420   Biso      1.000     C          0.585967  
         C3        1.0000    0.10010   0.83950   0.39910   Biso      1.000     C          -0.130838           
         C4        1.0000    0.35750   0.08470   0.60160   Biso      1.000     C          0.633605  
         C5        1.0000    0.08740   0.83780   0.63930   Biso      1.000     C          -0.10589100000000001          
         C6        1.0000    0.92680   0.68530   0.34880   Biso      1.000     C          -0.022158           
         C7        1.0000    0.91670   0.68250   0.59020   Biso      1.000     C          -0.004357           
         C8        1.0000    0.17850   0.91660   0.54510   Biso      1.000     C          -0.051112           
         C9        1.0000    0.07320   0.31470   0.65120   Biso      1.000     C          -0.02216  
         C10       1.0000    0.91260   0.16220   0.36070   Biso      1.000     C          -0.10589100000000001          
         C11       1.0000    0.64250   0.91530   0.39840   Biso      1.000     C          0.633604  
         C12       1.0000    0.89990   0.16050   0.60090   Biso      1.000     C          -0.13083499999999998          
         C13       1.0000    0.17800   0.40200   0.30580   Biso      1.000     C          0.585966  
         C14       1.0000    0.15610   0.39520   0.80880   Biso      1.000     C          0.646508  
         C15       1.0000    0.16600   0.39290   0.55620   Biso      1.000     C          -0.109847           
         C16       1.0000    0.82150   0.08340   0.45490   Biso      1.000     C          -0.051111000000000004         
         C17       1.0000    0.84390   0.60480   0.19120   Biso      1.000     C          0.646508  
         C18       1.0000    0.83400   0.60710   0.44380   Biso      1.000     C          -0.109848           
         Ca1       1.0000    0.68682   0.42197   0.89164   Biso      1.000     Ca          1.421355  
         Ca2       1.0000    0.31318   0.57803   0.10836   Biso      1.000     Ca          1.421357  
         H1        1.0000    0.83620   0.10880   0.66430   Biso      1.000     H          0.130103  
         H2        1.0000    0.85870   0.11030   0.26330   Biso      1.000     H          0.130384  
         H3        1.0000    0.49190   0.75080   0.46030   Biso      1.000     H          0.42571099999999995           
         H4        1.0000    0.71650   0.50420   0.40960   Biso      1.000     H          0.128402  
         H5        1.0000    0.16380   0.89120   0.33570   Biso      1.000     H          0.130103  
         H6        1.0000    0.14130   0.88970   0.73670   Biso      1.000     H          0.130383  
         H7        1.0000    0.50810   0.24920   0.53970   Biso      1.000     H          0.42571000000000003           
         H8        1.0000    0.28350   0.49580   0.59040   Biso      1.000     H          0.128401  
         O1        1.0000    0.56180   0.84825   0.27104   Biso      1.000     O          -0.5617810000000001           
         O2        1.0000    0.35780   0.45900   0.86646   Biso      1.000     O          -0.669191           
         O3        1.0000    0.58180   0.84635   0.49765   Biso      1.000     O          -0.52108  
         O4        1.0000    0.02160   0.39730   0.87920   Biso      1.000     O          -0.652219           
         O5        1.0000    0.32360   0.54708   0.35115   Biso      1.000     O          -0.655049           
         O6        1.0000    0.97840   0.60270   0.12080   Biso      1.000     O          -0.652219           
         O7        1.0000    0.43820   0.15175   0.72896   Biso      1.000     O          -0.5617810000000001           
         O8        1.0000    0.64220   0.54100   0.13354   Biso      1.000     O          -0.669191           
         O9        1.0000    0.41820   0.15365   0.50235   Biso      1.000     O          -0.52108  
         O10       1.0000    0.67640   0.45292   0.64885   Biso      1.000     O          -0.65505  
         O11       1.0000    0.88890   0.67290   0.82456   Biso      1.000     O          -0.6185109999999999           
         O12       1.0000    0.11110   0.32710   0.17544   Biso      1.000     O          -0.618512 