
##########################################################################
#               Crystallographic Information Format file
#               Produced by PyCifRW module
#
#  This is a CIF file.  CIF has been adopted by the International
#  Union of Crystallography as the standard for data archiving and
#  transmission.
#
#  For information on this file format, follow the CIF links at
#  http://www.iucr.org
##########################################################################

data_image0

_cell_length_a                          6.853
_cell_length_b                          9.007
_cell_length_c                          9.987
_cell_angle_alpha                       102.13
_cell_angle_beta                        100.53
_cell_angle_gamma                       110.21
_symmetry_space_group_name_H-M          'P 1'
_symmetry_int_tables_number             1
loop_
  _symmetry_equiv_pos_as_xyz
         'x, y, z' 
loop_
  _atom_site_label
  _atom_site_occupancy
  _atom_site_fract_x
  _atom_site_fract_y
  _atom_site_fract_z
  _atom_site_thermal_displace_type
  _atom_site_B_iso_or_equiv
  _atom_site_type_symbol
  _atom_site_charge
         C1        1.0000    0.08470   0.32770   0.14930   Biso      1.000     C          -0.026798           
         C2        1.0000    0.08960   0.82570   0.90240   Biso      1.000     C          -0.124296           
         C3        1.0000    0.16650   0.90560   0.04920   Biso      1.000     C          -0.057529           
         C4        1.0000    0.07380   0.83010   0.14350   Biso      1.000     C          -0.097947           
         C5        1.0000    0.90370   0.67450   0.09150   Biso      1.000     C          -0.005426           
         C6        1.0000    0.82260   0.59630   0.94500   Biso      1.000     C          -0.10232  
         C7        1.0000    0.91530   0.67230   0.85070   Biso      1.000     C          -0.026798           
         C8        1.0000    0.34420   0.07420   0.10580   Biso      1.000     C          0.631626  
         C9        1.0000    0.17740   0.40370   0.05500   Biso      1.000     C          -0.10232  
         C10       1.0000    0.09630   0.32550   0.90850   Biso      1.000     C          -0.005426           
         C11       1.0000    0.92620   0.16990   0.85650   Biso      1.000     C          -0.097945           
         C12       1.0000    0.83350   0.09440   0.95080   Biso      1.000     C          -0.057531           
         C13       1.0000    0.91040   0.17430   0.09760   Biso      1.000     C          -0.124296           
         C14       1.0000    0.16780   0.41020   0.30670   Biso      1.000     C          0.639296  
         C15       1.0000    0.19370   0.40860   0.80690   Biso      1.000     C          0.580204  
         C16       1.0000    0.65580   0.92580   0.89420   Biso      1.000     C          0.631626  
         C17       1.0000    0.83220   0.58980   0.69330   Biso      1.000     C          0.639297  
         C18       1.0000    0.80630   0.59140   0.19310   Biso      1.000     C          0.580204  
         Ca1       1.0000    0.68520   0.41532   0.39009   Biso      1.000     Ca          1.421883  
         Ca2       1.0000    0.31480   0.58468   0.60991   Biso      1.000     Ca          1.421886  
         H1        1.0000    0.87330   0.11520   0.75690   Biso      1.000     H          0.131671  
         H2        1.0000    0.29560   0.50880   0.09070   Biso      1.000     H          0.13014   
         H3        1.0000    0.50520   0.77090   0.95840   Biso      1.000     H          0.432044  
         H4        1.0000    0.15590   0.87580   0.83850   Biso      1.000     H          0.128542  
         H5        1.0000    0.12670   0.88480   0.24310   Biso      1.000     H          0.131672  
         H6        1.0000    0.70440   0.49120   0.90930   Biso      1.000     H          0.13014   
         H7        1.0000    0.49480   0.22910   0.04160   Biso      1.000     H          0.432044  
         H8        1.0000    0.84410   0.12420   0.16150   Biso      1.000     H          0.128542  
         O1        1.0000    0.59370   0.86340   0.99490   Biso      1.000     O          -0.527967           
         O2        1.0000    0.14020   0.32780   0.67640   Biso      1.000     O          -0.620534           
         O3        1.0000    0.32550   0.55780   0.85300   Biso      1.000     O          -0.654071           
         O4        1.0000    0.36870   0.47910   0.36530   Biso      1.000     O          -0.660453           
         O5        1.0000    0.03310   0.40850   0.37770   Biso      1.000     O          -0.658624           
         O6        1.0000    0.63130   0.52090   0.63470   Biso      1.000     O          -0.660454           
         O7        1.0000    0.40630   0.13660   0.00510   Biso      1.000     O          -0.527968           
         O8        1.0000    0.85980   0.67220   0.32360   Biso      1.000     O          -0.620534           
         O9        1.0000    0.67450   0.44220   0.14700   Biso      1.000     O          -0.654069           
         O10       1.0000    0.96690   0.59150   0.62230   Biso      1.000     O          -0.658624           
         O11       1.0000    0.42170   0.14750   0.23310   Biso      1.000     O          -0.559444           
         O12       1.0000    0.57830   0.85250   0.76690   Biso      1.000     O          -0.559444 