
##########################################################################
#               Crystallographic Information Format file
#               Produced by PyCifRW module
#
#  This is a CIF file.  CIF has been adopted by the International
#  Union of Crystallography as the standard for data archiving and
#  transmission.
#
#  For information on this file format, follow the CIF links at
#  http://www.iucr.org
##########################################################################

data_image0

_cell_length_a                          11.38
_cell_length_b                          7.182
_cell_length_c                          6.628
_cell_angle_alpha                       90
_cell_angle_beta                        109.754
_cell_angle_gamma                       90
_symmetry_space_group_name_H-M          'P 1'
_symmetry_int_tables_number             1
loop_
  _symmetry_equiv_pos_as_xyz
         'x, y, z' 
loop_
  _atom_site_label
  _atom_site_occupancy
  _atom_site_fract_x
  _atom_site_fract_y
  _atom_site_fract_z
  _atom_site_thermal_displace_type
  _atom_site_B_iso_or_equiv
  _atom_site_type_symbol
  _atom_site_charge
         C1        1.0000    0.50000   0.38100   0.50000   Biso      1.000     C          0.541714  
         C2        1.0000    0.73580   0.15320   0.03500   Biso      1.000     C          0.583194  
         C3        1.0000    0.23580   0.65320   0.03500   Biso      1.000     C          0.5831930000000001  
         C4        1.0000    0.76420   0.65320   0.96500   Biso      1.000     C          0.5831930000000001  
         C5        1.0000    0.00000   0.88100   0.50000   Biso      1.000     C          0.541715  
         C6        1.0000    0.26420   0.15320   0.96500   Biso      1.000     C          0.5831930000000001  
         Gd1       1.0000    0.00000   0.94955   0.00000   Biso      1.000     Gd          2.049858  
         Gd2       1.0000    0.50000   0.44955   0.00000   Biso      1.000     Gd          2.049855  
         H1        1.0000    0.00000   0.01070   0.50000   Biso      1.000     H          -0.0016190000000000002        
         H2        1.0000    0.50000   0.51070   0.50000   Biso      1.000     H          -0.0016190000000000002        
         H3        1.0000    0.69510   0.10710   0.89810   Biso      1.000     H          0.011406  
         H4        1.0000    0.80490   0.60710   0.10190   Biso      1.000     H          0.011406  
         H5        1.0000    0.19510   0.60710   0.89810   Biso      1.000     H          0.011406  
         H6        1.0000    0.30490   0.10710   0.10190   Biso      1.000     H          0.011406  
         O1        1.0000    0.65280   0.61260   0.88150   Biso      1.000     O          -0.652623           
         O2        1.0000    0.82700   0.74950   0.88380   Biso      1.000     O          -0.627679           
         O3        1.0000    0.50820   0.30260   0.33760   Biso      1.000     O          -0.609274           
         O4        1.0000    0.32700   0.24950   0.88380   Biso      1.000     O          -0.627678           
         O5        1.0000    0.49180   0.30260   0.66240   Biso      1.000     O          -0.609273           
         O6        1.0000    0.34720   0.61260   0.11850   Biso      1.000     O          -0.652623           
         O7        1.0000    0.17300   0.74950   0.11620   Biso      1.000     O          -0.627678           
         O8        1.0000    0.00820   0.80260   0.33760   Biso      1.000     O          -0.609273           
         O9        1.0000    0.84720   0.11260   0.11850   Biso      1.000     O          -0.652624           
         O10       1.0000    0.67300   0.24950   0.11620   Biso      1.000     O          -0.627678           
         O11       1.0000    0.99180   0.80260   0.66240   Biso      1.000     O          -0.609272           
         O12       1.0000    0.15280   0.11260   0.88150   Biso      1.000     O          -0.652624 