
##########################################################################
#               Crystallographic Information Format file
#               Produced by PyCifRW module
#
#  This is a CIF file.  CIF has been adopted by the International
#  Union of Crystallography as the standard for data archiving and
#  transmission.
#
#  For information on this file format, follow the CIF links at
#  http://www.iucr.org
##########################################################################

data_image0

_cell_length_a                          11.43
_cell_length_b                          7.22
_cell_length_c                          6.655
_cell_angle_alpha                       90
_cell_angle_beta                        109.912
_cell_angle_gamma                       90
_symmetry_space_group_name_H-M          'P 1'
_symmetry_int_tables_number             1
loop_
  _symmetry_equiv_pos_as_xyz
         'x, y, z' 
loop_
  _atom_site_label
  _atom_site_occupancy
  _atom_site_fract_x
  _atom_site_fract_y
  _atom_site_fract_z
  _atom_site_thermal_displace_type
  _atom_site_B_iso_or_equiv
  _atom_site_type_symbol
  _atom_site_charge
         C1        1.0000    0.00000   0.34600   0.50000   Biso      1.000     C          0.550047  
         C2        1.0000    0.76250   0.12300   0.96200   Biso      1.000     C          0.592424  
         C3        1.0000    0.73750   0.62300   0.03800   Biso      1.000     C          0.592424  
         C4        1.0000    0.26250   0.62300   0.96200   Biso      1.000     C          0.592424  
         C5        1.0000    0.50000   0.84600   0.50000   Biso      1.000     C          0.550045  
         C6        1.0000    0.23750   0.12300   0.03800   Biso      1.000     C          0.592425  
         H1        1.0000    0.50000   0.97460   0.50000   Biso      1.000     H          -0.013001           
         H2        1.0000    0.00000   0.47460   0.50000   Biso      1.000     H          -0.013001           
         H3        1.0000    0.80250   0.07980   0.10010   Biso      1.000     H          0.000504  
         H4        1.0000    0.69750   0.57980   0.89990   Biso      1.000     H          0.000503  
         H5        1.0000    0.30250   0.57980   0.10010   Biso      1.000     H          0.000505  
         H6        1.0000    0.19750   0.07980   0.89990   Biso      1.000     H          0.000505  
         O1        1.0000    0.84610   0.58000   0.11740   Biso      1.000     O          -0.662812           
         O2        1.0000    0.67260   0.71550   0.11600   Biso      1.000     O          -0.647844           
         O3        1.0000    0.50840   0.77170   0.33730   Biso      1.000     O          -0.622182           
         O4        1.0000    0.99160   0.27170   0.66270   Biso      1.000     O          -0.622181           
         O5        1.0000    0.00840   0.27170   0.33730   Biso      1.000     O          -0.622181           
         O6        1.0000    0.15390   0.58000   0.88260   Biso      1.000     O          -0.662811           
         O7        1.0000    0.32740   0.71550   0.88400   Biso      1.000     O          -0.647843           
         O8        1.0000    0.49160   0.77170   0.66270   Biso      1.000     O          -0.622183           
         O9        1.0000    0.65390   0.08000   0.88260   Biso      1.000     O          -0.662809           
         O10       1.0000    0.82740   0.21550   0.88400   Biso      1.000     O          -0.647845           
         O11       1.0000    0.17260   0.21550   0.11600   Biso      1.000     O          -0.647844           
         O12       1.0000    0.34610   0.08000   0.11740   Biso      1.000     O          -0.662809           
         Sm1       1.0000    0.00000   0.41855   0.00000   Biso      1.000     Sm          2.142775  
         Sm2       1.0000    0.50000   0.91855   0.00000   Biso      1.000     Sm          2.142767 