
##########################################################################
#               Crystallographic Information Format file
#               Produced by PyCifRW module
#
#  This is a CIF file.  CIF has been adopted by the International
#  Union of Crystallography as the standard for data archiving and
#  transmission.
#
#  For information on this file format, follow the CIF links at
#  http://www.iucr.org
##########################################################################

data_image0

_cell_length_a                          11.081
_cell_length_b                          7.0226
_cell_length_c                          6.485
_cell_angle_alpha                       90
_cell_angle_beta                        109.129
_cell_angle_gamma                       90
_symmetry_space_group_name_H-M          'P 1'
_symmetry_int_tables_number             1
loop_
  _symmetry_equiv_pos_as_xyz
         'x, y, z' 
loop_
  _atom_site_label
  _atom_site_occupancy
  _atom_site_fract_x
  _atom_site_fract_y
  _atom_site_fract_z
  _atom_site_thermal_displace_type
  _atom_site_B_iso_or_equiv
  _atom_site_type_symbol
  _atom_site_charge
         C1        1.0000    0.00000   0.24640   0.50000   Biso      1.000     C          0.514424  
         C2        1.0000    0.76430   0.47580   0.96570   Biso      1.000     C          0.5603560000000001  
         C3        1.0000    0.26430   0.97580   0.96570   Biso      1.000     C          0.560358  
         C4        1.0000    0.73570   0.97580   0.03430   Biso      1.000     C          0.560358  
         C5        1.0000    0.50000   0.74640   0.50000   Biso      1.000     C          0.514422  
         C6        1.0000    0.23570   0.47580   0.03430   Biso      1.000     C          0.560358  
         H1        1.0000    0.50000   0.61390   0.50000   Biso      1.000     H          0.004793  
         H2        1.0000    0.00000   0.11390   0.50000   Biso      1.000     H          0.004790999999999999          
         H3        1.0000    0.80460   0.52230   0.10580   Biso      1.000     H          0.012705  
         H4        1.0000    0.69540   0.02230   0.89420   Biso      1.000     H          0.012705  
         H5        1.0000    0.30460   0.02230   0.10580   Biso      1.000     H          0.012703  
         H6        1.0000    0.19540   0.52230   0.89420   Biso      1.000     H          0.012703  
         Lu1       1.0000    0.50000   0.68130   0.00000   Biso      1.000     Lu          1.731175  
         Lu2       1.0000    0.00000   0.18130   0.00000   Biso      1.000     Lu          1.73117   
         O1        1.0000    0.84780   0.02010   0.12200   Biso      1.000     O          -0.5746760000000001           
         O2        1.0000    0.67070   0.87450   0.11520   Biso      1.000     O          -0.569274           
         O3        1.0000    0.99380   0.32910   0.66710   Biso      1.000     O          -0.554307           
         O4        1.0000    0.17070   0.37450   0.11520   Biso      1.000     O          -0.5692729999999999           
         O5        1.0000    0.00620   0.32910   0.33290   Biso      1.000     O          -0.5543060000000001           
         O6        1.0000    0.15220   0.02010   0.87800   Biso      1.000     O          -0.5746760000000001           
         O7        1.0000    0.32930   0.87450   0.88480   Biso      1.000     O          -0.569274           
         O8        1.0000    0.49380   0.82910   0.66710   Biso      1.000     O          -0.554304           
         O9        1.0000    0.65220   0.52010   0.87800   Biso      1.000     O          -0.5746760000000001           
         O10       1.0000    0.82930   0.37450   0.88480   Biso      1.000     O          -0.5692729999999999           
         O11       1.0000    0.50620   0.82910   0.33290   Biso      1.000     O          -0.554304           
         O12       1.0000    0.34780   0.52010   0.12200   Biso      1.000     O          -0.574677 