
##########################################################################
#               Crystallographic Information Format file
#               Produced by PyCifRW module
#
#  This is a CIF file.  CIF has been adopted by the International
#  Union of Crystallography as the standard for data archiving and
#  transmission.
#
#  For information on this file format, follow the CIF links at
#  http://www.iucr.org
##########################################################################

data_image0

_cell_length_a                          20.1049
_cell_length_b                          12.7575
_cell_length_c                          14.427
_cell_angle_alpha                       90
_cell_angle_beta                        90
_cell_angle_gamma                       90
_symmetry_space_group_name_H-M          'P 1'
_symmetry_int_tables_number             1
loop_
  _symmetry_equiv_pos_as_xyz
         'x, y, z' 
loop_
  _atom_site_label
  _atom_site_occupancy
  _atom_site_fract_x
  _atom_site_fract_y
  _atom_site_fract_z
  _atom_site_thermal_displace_type
  _atom_site_B_iso_or_equiv
  _atom_site_type_symbol
  _atom_site_charge
         C1        1.0000    0.59440   0.73700   0.70380   Biso      1.000     C          0.256721  
         C2        1.0000    0.62530   0.18490   0.14870   Biso      1.000     C          -0.147284           
         C3        1.0000    0.40560   0.26300   0.70380   Biso      1.000     C          0.256721  
         C4        1.0000    0.28360   0.32510   0.51070   Biso      1.000     C          0.589408  
         C5        1.0000    0.37470   0.81510   0.14870   Biso      1.000     C          -0.147284           
         C6        1.0000    0.52100   0.78800   0.81530   Biso      1.000     C          0.443948  
         C7        1.0000    0.36710   0.02480   0.90980   Biso      1.000     C          0.154482  
         C8        1.0000    0.41880   0.89660   0.10830   Biso      1.000     C          0.624777  
         C9        1.0000    0.92980   0.35960   0.15450   Biso      1.000     C          -0.041118           
         C10       1.0000    0.33510   0.82340   0.22590   Biso      1.000     C          0.003665  
         C11       1.0000    0.37020   0.13950   0.80210   Biso      1.000     C          0.305075  
         C12       1.0000    0.22280   0.90690   0.55670   Biso      1.000     C          -0.116899           
         C13       1.0000    0.86030   0.78630   0.88260   Biso      1.000     C          -0.060248           
         C14       1.0000    0.28660   0.39970   0.35080   Biso      1.000     C          -0.022507           
         C15       1.0000    0.74300   0.49140   0.45590   Biso      1.000     C          0.013364  
         C16       1.0000    0.72280   0.59310   0.44330   Biso      1.000     C          -0.116893           
         C17       1.0000    0.87020   0.36050   0.19790   Biso      1.000     C          0.305092  
         C18       1.0000    0.83510   0.67660   0.77410   Biso      1.000     C          0.003657  
         C19       1.0000    0.91880   0.60340   0.89170   Biso      1.000     C          0.624776  
         C20       1.0000    0.36030   0.71370   0.11740   Biso      1.000     C          -0.060247           
         C21       1.0000    0.86710   0.47520   0.09020   Biso      1.000     C          0.154483  
         C22       1.0000    0.42980   0.14040   0.84550   Biso      1.000     C          -0.041102           
         C23       1.0000    0.78660   0.10030   0.64920   Biso      1.000     C          -0.022505           
         C24       1.0000    0.71640   0.67490   0.51070   Biso      1.000     C          0.58941   
         C25       1.0000    0.87470   0.68490   0.85130   Biso      1.000     C          -0.147277           
         C26       1.0000    0.90560   0.23700   0.29620   Biso      1.000     C          0.256721  
         C27       1.0000    0.97900   0.28800   0.18470   Biso      1.000     C          0.44395   
         C28       1.0000    0.24300   0.00860   0.54410   Biso      1.000     C          0.013372  
         C29       1.0000    0.21340   0.89970   0.64920   Biso      1.000     C          -0.022486           
         C30       1.0000    0.02100   0.71200   0.18470   Biso      1.000     C          0.443949  
         C31       1.0000    0.09440   0.76300   0.29620   Biso      1.000     C          0.256721  
         C32       1.0000    0.78360   0.17490   0.48930   Biso      1.000     C          0.589409  
         C33       1.0000    0.63290   0.97520   0.90980   Biso      1.000     C          0.154483  
         C34       1.0000    0.58120   0.10340   0.10830   Biso      1.000     C          0.624777  
         C35       1.0000    0.07020   0.64040   0.15450   Biso      1.000     C          -0.041118           
         C36       1.0000    0.66490   0.17660   0.22590   Biso      1.000     C          0.003663  
         C37       1.0000    0.62980   0.86050   0.80210   Biso      1.000     C          0.305075  
         C38       1.0000    0.77720   0.09310   0.55670   Biso      1.000     C          -0.116879           
         C39       1.0000    0.13970   0.21370   0.88260   Biso      1.000     C          -0.060248           
         C40       1.0000    0.25700   0.50860   0.45590   Biso      1.000     C          0.013363  
         C41       1.0000    0.27720   0.40690   0.44330   Biso      1.000     C          -0.116873           
         C42       1.0000    0.12980   0.63950   0.19790   Biso      1.000     C          0.305092  
         C43       1.0000    0.16490   0.32340   0.77410   Biso      1.000     C          0.003657  
         C44       1.0000    0.75700   0.99140   0.54410   Biso      1.000     C          0.013369  
         C45       1.0000    0.71340   0.60030   0.35080   Biso      1.000     C          -0.022486           
         C46       1.0000    0.08120   0.39660   0.89170   Biso      1.000     C          0.624777  
         C47       1.0000    0.63970   0.28630   0.11740   Biso      1.000     C          -0.060246           
         C48       1.0000    0.12530   0.31510   0.85130   Biso      1.000     C          -0.147277           
         C49       1.0000    0.13290   0.52480   0.09020   Biso      1.000     C          0.154482  
         C50       1.0000    0.57020   0.85960   0.84550   Biso      1.000     C          -0.041102           
         C51       1.0000    0.47900   0.21200   0.81530   Biso      1.000     C          0.443948  
         C52       1.0000    0.21640   0.82510   0.48930   Biso      1.000     C          0.589411  
         H1        1.0000    0.45220   0.81380   0.90750   Biso      1.000     H          0.348589  
         H2        1.0000    0.43500   0.72590   0.84390   Biso      1.000     H          0.360171  
         H3        1.0000    0.64820   0.02860   0.94810   Biso      1.000     H          0.090817  
         H4        1.0000    0.79970   0.16150   0.67910   Biso      1.000     H          0.114956  
         H5        1.0000    0.39850   0.30480   0.65190   Biso      1.000     H          0.088137  
         H6        1.0000    0.33260   0.88320   0.26260   Biso      1.000     H          0.129393  
         H7        1.0000    0.60150   0.69520   0.65190   Biso      1.000     H          0.088137  
         H8        1.0000    0.62130   0.31770   0.06520   Biso      1.000     H          0.114469  
         H9        1.0000    0.54780   0.18620   0.90750   Biso      1.000     H          0.348589  
         H10       1.0000    0.74610   0.96170   0.48720   Biso      1.000     H          0.133518  
         H11       1.0000    0.56500   0.27410   0.84390   Biso      1.000     H          0.360172  
         H12       1.0000    0.25390   0.03830   0.48720   Biso      1.000     H          0.133518  
         H13       1.0000    0.20030   0.83850   0.67910   Biso      1.000     H          0.114954  
         H14       1.0000    0.35180   0.97140   0.94810   Biso      1.000     H          0.090817  
         H15       1.0000    0.66740   0.11680   0.26260   Biso      1.000     H          0.129393  
         H16       1.0000    0.37870   0.68230   0.06520   Biso      1.000     H          0.114469  
         H17       1.0000    0.70030   0.66150   0.32090   Biso      1.000     H          0.114954  
         H18       1.0000    0.89850   0.19520   0.34810   Biso      1.000     H          0.088137  
         H19       1.0000    0.12130   0.18230   0.93480   Biso      1.000     H          0.114469  
         H20       1.0000    0.14820   0.47140   0.05190   Biso      1.000     H          0.090817  
         H21       1.0000    0.93500   0.77410   0.15610   Biso      1.000     H          0.360172  
         H22       1.0000    0.95220   0.68620   0.09250   Biso      1.000     H          0.348589  
         H23       1.0000    0.10150   0.80480   0.34810   Biso      1.000     H          0.088137  
         H24       1.0000    0.29970   0.33850   0.32090   Biso      1.000     H          0.114956  
         H25       1.0000    0.16740   0.38320   0.73740   Biso      1.000     H          0.129393  
         H26       1.0000    0.87870   0.81770   0.93480   Biso      1.000     H          0.114469  
         H27       1.0000    0.75390   0.46170   0.51280   Biso      1.000     H          0.133518  
         H28       1.0000    0.83260   0.61680   0.73740   Biso      1.000     H          0.129393  
         H29       1.0000    0.24610   0.53830   0.51280   Biso      1.000     H          0.133518  
         H30       1.0000    0.85180   0.52860   0.05190   Biso      1.000     H          0.090817  
         H31       1.0000    0.06500   0.22590   0.15610   Biso      1.000     H          0.360172  
         H32       1.0000    0.04780   0.31380   0.09250   Biso      1.000     H          0.348589  
         N1        1.0000    0.30110   0.73770   0.24210   Biso      1.000     N          -0.15338  
         N2        1.0000    0.32900   0.06860   0.84310   Biso      1.000     N          -0.389021           
         N3        1.0000    0.03790   0.27420   0.13880   Biso      1.000     N          -0.698798           
         N4        1.0000    0.46500   0.27330   0.74500   Biso      1.000     N          -0.41827  
         N5        1.0000    0.19890   0.23770   0.75790   Biso      1.000     N          -0.153379           
         N6        1.0000    0.96210   0.72580   0.13880   Biso      1.000     N          -0.698798           
         N7        1.0000    0.67100   0.93140   0.84310   Biso      1.000     N          -0.389021           
         N8        1.0000    0.77510   0.01140   0.69250   Biso      1.000     N          -0.221549           
         N9        1.0000    0.68370   0.33100   0.17380   Biso      1.000     N          -0.216625           
         N10       1.0000    0.56990   0.93450   0.91660   Biso      1.000     N          -0.30782  
         N11       1.0000    0.75540   0.94060   0.62610   Biso      1.000     N          -0.175133           
         N12       1.0000    0.69890   0.26230   0.24210   Biso      1.000     N          -0.153365           
         N13       1.0000    0.96500   0.22670   0.25500   Biso      1.000     N          -0.41827  
         N14       1.0000    0.14430   0.70070   0.27230   Biso      1.000     N          -0.338892           
         N15       1.0000    0.25540   0.55940   0.37390   Biso      1.000     N          -0.17514  
         N16       1.0000    0.24460   0.05940   0.62610   Biso      1.000     N          -0.175141           
         N17       1.0000    0.22490   0.98860   0.69250   Biso      1.000     N          -0.221544           
         N18       1.0000    0.53500   0.72670   0.74500   Biso      1.000     N          -0.41827  
         N19       1.0000    0.27510   0.48860   0.30750   Biso      1.000     N          -0.221541           
         N20       1.0000    0.46210   0.77420   0.86120   Biso      1.000     N          -0.698797           
         N21       1.0000    0.85570   0.29930   0.27230   Biso      1.000     N          -0.338892           
         N22       1.0000    0.17100   0.56860   0.15690   Biso      1.000     N          -0.389023           
         N23       1.0000    0.43010   0.06550   0.91660   Biso      1.000     N          -0.307819           
         N24       1.0000    0.18370   0.16900   0.82620   Biso      1.000     N          -0.21661  
         N25       1.0000    0.06990   0.56550   0.08340   Biso      1.000     N          -0.307818           
         N26       1.0000    0.03500   0.77330   0.25500   Biso      1.000     N          -0.41827  
         N27       1.0000    0.80110   0.76230   0.75790   Biso      1.000     N          -0.153379           
         N28       1.0000    0.64430   0.79930   0.72770   Biso      1.000     N          -0.33889  
         N29       1.0000    0.35570   0.20070   0.72770   Biso      1.000     N          -0.33889  
         N30       1.0000    0.93010   0.43450   0.08340   Biso      1.000     N          -0.307818           
         N31       1.0000    0.31630   0.66900   0.17380   Biso      1.000     N          -0.21661  
         N32       1.0000    0.53790   0.22580   0.86120   Biso      1.000     N          -0.698797           
         N33       1.0000    0.72490   0.51140   0.30750   Biso      1.000     N          -0.221551           
         N34       1.0000    0.82900   0.43140   0.15690   Biso      1.000     N          -0.389023           
         N35       1.0000    0.74460   0.44060   0.37390   Biso      1.000     N          -0.175132           
         N36       1.0000    0.81630   0.83100   0.82620   Biso      1.000     N          -0.21661  
         O1        1.0000    0.26600   0.34550   0.59320   Biso      1.000     O          -0.557242           
         O2        1.0000    0.30500   0.23350   0.49290   Biso      1.000     O          -0.595126           
         O3        1.0000    0.04740   0.36920   0.96190   Biso      1.000     O          -0.616364           
         O4        1.0000    0.42040   0.98160   0.13740   Biso      1.000     O          -0.530502           
         O5        1.0000    0.76600   0.15450   0.40680   Biso      1.000     O          -0.557242           
         O6        1.0000    0.54740   0.13080   0.03810   Biso      1.000     O          -0.616364           
         O7        1.0000    0.57960   0.01840   0.13740   Biso      1.000     O          -0.530502           
         O8        1.0000    0.07960   0.48160   0.86260   Biso      1.000     O          -0.530502           
         O9        1.0000    0.92040   0.51840   0.86260   Biso      1.000     O          -0.530502           
         O10       1.0000    0.95260   0.63080   0.96190   Biso      1.000     O          -0.616364           
         O11       1.0000    0.73400   0.65450   0.59320   Biso      1.000     O          -0.557241           
         O12       1.0000    0.69500   0.76650   0.49290   Biso      1.000     O          -0.595127           
         O13       1.0000    0.19500   0.73350   0.50710   Biso      1.000     O          -0.595126           
         O14       1.0000    0.23400   0.84550   0.40680   Biso      1.000     O          -0.557242           
         O15       1.0000    0.45260   0.86920   0.03810   Biso      1.000     O          -0.616364           
         O16       1.0000    0.80500   0.26650   0.50710   Biso      1.000     O          -0.595126           
         Zn1       1.0000    0.23262   0.70643   0.33937   Biso      1.000     Zn          0.668988  
         Zn2       1.0000    0.26738   0.20643   0.66063   Biso      1.000     Zn          0.668988  
         Zn3       1.0000    0.73262   0.79357   0.66063   Biso      1.000     Zn          0.668987  
         Zn4       1.0000    0.23203   0.03213   0.82563   Biso      1.000     Zn          0.776872  
         Zn5       1.0000    0.00000   0.50000   0.99806   Biso      1.000     Zn          0.778731  
         Zn6       1.0000    0.73203   0.46787   0.17437   Biso      1.000     Zn          0.776875  
         Zn7       1.0000    0.76738   0.29357   0.33937   Biso      1.000     Zn          0.668986  
         Zn8       1.0000    0.26797   0.53213   0.17437   Biso      1.000     Zn          0.776873  
         Zn9       1.0000    0.76797   0.96787   0.82563   Biso      1.000     Zn          0.776873  
         Zn10      1.0000    0.50000   0.00000   0.00194   Biso      1.000     Zn          0.778731 