
##########################################################################
#               Crystallographic Information Format file
#               Produced by PyCifRW module
#
#  This is a CIF file.  CIF has been adopted by the International
#  Union of Crystallography as the standard for data archiving and
#  transmission.
#
#  For information on this file format, follow the CIF links at
#  http://www.iucr.org
##########################################################################

data_image0

_cell_length_a                          6.712
_cell_length_b                          11.2486
_cell_length_c                          17.965
_cell_angle_alpha                       90
_cell_angle_beta                        91.975
_cell_angle_gamma                       90
_symmetry_space_group_name_H-M          'P 1'
_symmetry_int_tables_number             1
loop_
  _symmetry_equiv_pos_as_xyz
         'x, y, z' 
loop_
  _atom_site_label
  _atom_site_occupancy
  _atom_site_fract_x
  _atom_site_fract_y
  _atom_site_fract_z
  _atom_site_thermal_displace_type
  _atom_site_B_iso_or_equiv
  _atom_site_type_symbol
  _atom_site_charge
         C1        1.0000    0.92840   0.21660   0.72220   Biso      1.000     C          -0.098692           
         C2        1.0000    0.76200   0.36920   0.10540   Biso      1.000     C          0.651274  
         C3        1.0000    0.75970   0.30300   0.18130   Biso      1.000     C          -0.041023000000000004         
         C4        1.0000    0.91940   0.22860   0.29180   Biso      1.000     C          -0.10194299999999999          
         C5        1.0000    0.76200   0.13080   0.60540   Biso      1.000     C          0.6512720000000001  
         C6        1.0000    0.75970   0.19700   0.68130   Biso      1.000     C          -0.041005           
         C7        1.0000    0.91940   0.27140   0.79180   Biso      1.000     C          -0.10194299999999999          
         C8        1.0000    0.08060   0.77140   0.70820   Biso      1.000     C          -0.10194299999999999          
         C9        1.0000    0.07160   0.71660   0.77780   Biso      1.000     C          -0.098694           
         C10       1.0000    0.41940   0.72860   0.79180   Biso      1.000     C          -0.10194299999999999          
         C11       1.0000    0.26200   0.63080   0.10540   Biso      1.000     C          0.6512720000000001  
         C12       1.0000    0.42840   0.71660   0.22220   Biso      1.000     C          -0.098692           
         C13       1.0000    0.41940   0.77140   0.29180   Biso      1.000     C          -0.101944           
         C14       1.0000    0.24030   0.69700   0.81870   Biso      1.000     C          -0.040996           
         C15       1.0000    0.23800   0.63080   0.89460   Biso      1.000     C          0.651271  
         C16       1.0000    0.73800   0.13080   0.39460   Biso      1.000     C          0.651273  
         C17       1.0000    0.74030   0.19700   0.31870   Biso      1.000     C          -0.041014           
         C18       1.0000    0.57160   0.21660   0.27780   Biso      1.000     C          -0.098677           
         C19       1.0000    0.58060   0.27140   0.20820   Biso      1.000     C          -0.101934           
         C20       1.0000    0.25970   0.69700   0.18130   Biso      1.000     C          -0.041005           
         C21       1.0000    0.42840   0.78340   0.72220   Biso      1.000     C          -0.098694           
         C22       1.0000    0.92840   0.28340   0.22220   Biso      1.000     C          -0.098675           
         C23       1.0000    0.26200   0.86920   0.60540   Biso      1.000     C          0.651271  
         C24       1.0000    0.25970   0.80300   0.68130   Biso      1.000     C          -0.040996           
         C25       1.0000    0.57160   0.28340   0.77780   Biso      1.000     C          -0.098695           
         C26       1.0000    0.58060   0.22860   0.70820   Biso      1.000     C          -0.101934           
         C27       1.0000    0.73800   0.36920   0.89460   Biso      1.000     C          0.651271  
         C28       1.0000    0.08060   0.72860   0.20820   Biso      1.000     C          -0.101934           
         C29       1.0000    0.07160   0.78340   0.27780   Biso      1.000     C          -0.098695           
         C30       1.0000    0.74030   0.30300   0.81870   Biso      1.000     C          -0.040996           
         C31       1.0000    0.23800   0.86920   0.39460   Biso      1.000     C          0.651271  
         C32       1.0000    0.24030   0.80300   0.31870   Biso      1.000     C          -0.040996           
         Ga1       1.0000    0.00000   0.00000   0.50000   Biso      1.000     Ga          1.4541309999999998  
         Ga2       1.0000    0.50000   0.00000   0.50000   Biso      1.000     Ga          1.4541309999999998  
         Ga3       1.0000    0.50000   0.50000   0.00000   Biso      1.000     Ga          1.454129  
         Ga4       1.0000    0.00000   0.50000   0.00000   Biso      1.000     Ga          1.454132  
         H1        1.0000    0.25000   0.16580   0.50000   Biso      1.000     H          0.428055  
         H2        1.0000    0.94540   0.71000   0.17630   Biso      1.000     H          0.10881700000000001           
         H3        1.0000    0.55460   0.79000   0.32370   Biso      1.000     H          0.10881800000000001           
         H4        1.0000    0.56970   0.68900   0.20180   Biso      1.000     H          0.11043299999999999           
         H5        1.0000    0.25000   0.33420   0.00000   Biso      1.000     H          0.428055  
         H6        1.0000    0.05460   0.21000   0.32370   Biso      1.000     H          0.10881800000000001           
         H7        1.0000    0.93030   0.81100   0.29820   Biso      1.000     H          0.11043299999999999           
         H8        1.0000    0.44540   0.21000   0.67630   Biso      1.000     H          0.10881700000000001           
         H9        1.0000    0.05460   0.29000   0.82370   Biso      1.000     H          0.10881800000000001           
         H10       1.0000    0.55460   0.71000   0.82370   Biso      1.000     H          0.10881800000000001           
         H11       1.0000    0.43030   0.18900   0.29820   Biso      1.000     H          0.11043199999999999           
         H12       1.0000    0.44540   0.29000   0.17630   Biso      1.000     H          0.10881700000000001           
         H13       1.0000    0.56970   0.81100   0.70180   Biso      1.000     H          0.11043299999999999           
         H14       1.0000    0.06970   0.18900   0.70180   Biso      1.000     H          0.11043299999999999           
         H15       1.0000    0.06970   0.31100   0.20180   Biso      1.000     H          0.11043199999999999           
         H16       1.0000    0.75000   0.83420   0.50000   Biso      1.000     H          0.428055  
         H17       1.0000    0.93030   0.68900   0.79820   Biso      1.000     H          0.11043299999999999           
         H18       1.0000    0.94540   0.79000   0.67630   Biso      1.000     H          0.10881800000000001           
         H19       1.0000    0.43030   0.31100   0.79820   Biso      1.000     H          0.11043299999999999           
         H20       1.0000    0.75000   0.66580   0.00000   Biso      1.000     H          0.428055  
         O1        1.0000    0.25000   0.07690   0.50000   Biso      1.000     O          -0.8762719999999999           
         O2        1.0000    0.43020   0.90200   0.58750   Biso      1.000     O          -0.578025           
         O3        1.0000    0.75000   0.57690   0.00000   Biso      1.000     O          -0.8762719999999999           
         O4        1.0000    0.39440   0.62150   0.92750   Biso      1.000     O          -0.553821           
         O5        1.0000    0.39440   0.87850   0.42750   Biso      1.000     O          -0.553822           
         O6        1.0000    0.89440   0.12150   0.42750   Biso      1.000     O          -0.553821           
         O7        1.0000    0.06980   0.90200   0.41250   Biso      1.000     O          -0.578025           
         O8        1.0000    0.10560   0.62150   0.07250   Biso      1.000     O          -0.553822           
         O9        1.0000    0.56980   0.40200   0.91250   Biso      1.000     O          -0.578024           
         O10       1.0000    0.75000   0.92310   0.50000   Biso      1.000     O          -0.8762719999999999           
         O11       1.0000    0.60560   0.12150   0.57250   Biso      1.000     O          -0.553822           
         O12       1.0000    0.56980   0.09800   0.41250   Biso      1.000     O          -0.578025           
         O13       1.0000    0.60560   0.37850   0.07250   Biso      1.000     O          -0.553821           
         O14       1.0000    0.06980   0.59800   0.91250   Biso      1.000     O          -0.578025           
         O15       1.0000    0.10560   0.87850   0.57250   Biso      1.000     O          -0.553821           
         O16       1.0000    0.93020   0.09800   0.58750   Biso      1.000     O          -0.578024           
         O17       1.0000    0.89440   0.37850   0.92750   Biso      1.000     O          -0.553822           
         O18       1.0000    0.43020   0.59800   0.08750   Biso      1.000     O          -0.578024           
         O19       1.0000    0.93020   0.40200   0.08750   Biso      1.000     O          -0.578025           
         O20       1.0000    0.25000   0.42310   0.00000   Biso      1.000     O          -0.8762719999999999 