
##########################################################################
#               Crystallographic Information Format file
#               Produced by PyCifRW module
#
#  This is a CIF file.  CIF has been adopted by the International
#  Union of Crystallography as the standard for data archiving and
#  transmission.
#
#  For information on this file format, follow the CIF links at
#  http://www.iucr.org
##########################################################################

data_image0

_cell_length_a                          17.5154
_cell_length_b                          17.5154
_cell_length_c                          17.5154
_cell_angle_alpha                       90
_cell_angle_beta                        90
_cell_angle_gamma                       90
_symmetry_space_group_name_H-M          'P 1'
_symmetry_int_tables_number             1
loop_
  _symmetry_equiv_pos_as_xyz
         'x, y, z' 
loop_
  _atom_site_label
  _atom_site_occupancy
  _atom_site_fract_x
  _atom_site_fract_y
  _atom_site_fract_z
  _atom_site_thermal_displace_type
  _atom_site_B_iso_or_equiv
  _atom_site_type_symbol
  _atom_site_charge
         C1        1.0000    0.74180   0.99710   0.01450   Biso      1.000     C          0.564657  
         C2        1.0000    0.29090   0.61410   0.90970   Biso      1.000     C          0.5630970000000001  
         C3        1.0000    0.01450   0.74180   0.99710   Biso      1.000     C          0.564778  
         C4        1.0000    0.00890   0.76530   0.91280   Biso      1.000     C          0.199579  
         C5        1.0000    0.09030   0.79090   0.88590   Biso      1.000     C          0.563118  
         C6        1.0000    0.51450   0.75820   0.00290   Biso      1.000     C          0.564719  
         C7        1.0000    0.50890   0.73470   0.08720   Biso      1.000     C          0.199721  
         C8        1.0000    0.59030   0.70910   0.11410   Biso      1.000     C          0.563175  
         C9        1.0000    0.48550   0.25820   0.49710   Biso      1.000     C          0.564785  
         C10       1.0000    0.40970   0.20910   0.38590   Biso      1.000     C          0.563091  
         C11       1.0000    0.98550   0.24180   0.50290   Biso      1.000     C          0.565592  
         C12       1.0000    0.99110   0.26530   0.58720   Biso      1.000     C          0.203478  
         C13       1.0000    0.26530   0.58720   0.99110   Biso      1.000     C          0.199797  
         C14       1.0000    0.90970   0.29090   0.61410   Biso      1.000     C          0.563844  
         C15       1.0000    0.91280   0.00890   0.76530   Biso      1.000     C          0.199534  
         C16       1.0000    0.88590   0.09030   0.79090   Biso      1.000     C          0.563008  
         C17       1.0000    0.00290   0.51450   0.75820   Biso      1.000     C          0.566096  
         C18       1.0000    0.08720   0.50890   0.73470   Biso      1.000     C          0.201467  
         C19       1.0000    0.11410   0.59030   0.70910   Biso      1.000     C          0.563926  
         C20       1.0000    0.49710   0.48550   0.25820   Biso      1.000     C          0.564816  
         C21       1.0000    0.41280   0.49110   0.23470   Biso      1.000     C          0.19973   
         C22       1.0000    0.38590   0.40970   0.20910   Biso      1.000     C          0.5632510000000001  
         C23       1.0000    0.50290   0.98550   0.24180   Biso      1.000     C          0.564696  
         C24       1.0000    0.58720   0.99110   0.26530   Biso      1.000     C          0.19958499999999998           
         C25       1.0000    0.61410   0.90970   0.29090   Biso      1.000     C          0.563137  
         C26       1.0000    0.99710   0.01450   0.74180   Biso      1.000     C          0.564697  
         C27       1.0000    0.24180   0.50290   0.98550   Biso      1.000     C          0.564712  
         C28       1.0000    0.49110   0.23470   0.41280   Biso      1.000     C          0.19978900000000002           
         C29       1.0000    0.73470   0.08720   0.50890   Biso      1.000     C          0.199717  
         C30       1.0000    0.75820   0.00290   0.51450   Biso      1.000     C          0.564811  
         C31       1.0000    0.70910   0.11410   0.59030   Biso      1.000     C          0.563281  
         C32       1.0000    0.79090   0.88590   0.09030   Biso      1.000     C          0.563114  
         C33       1.0000    0.23470   0.41280   0.49110   Biso      1.000     C          0.201676  
         C34       1.0000    0.20910   0.38590   0.40970   Biso      1.000     C          0.563581  
         C35       1.0000    0.76530   0.91280   0.00890   Biso      1.000     C          0.199551  
         C36       1.0000    0.25820   0.49710   0.48550   Biso      1.000     C          0.5649930000000001  
         Cu1       1.0000    0.59228   0.15125   0.50006   Biso      1.000     Cu          0.8230559999999999  
         Cu2       1.0000    0.34875   0.49994   0.09228   Biso      1.000     Cu          0.823198  
         Cu3       1.0000    0.40772   0.65125   0.99994   Biso      1.000     Cu          0.8233530000000001  
         Cu4       1.0000    0.15125   0.50006   0.59228   Biso      1.000     Cu          0.820522  
         Cu5       1.0000    0.49994   0.09228   0.34875   Biso      1.000     Cu          0.8231569999999999  
         Cu6       1.0000    0.90772   0.84875   0.00006   Biso      1.000     Cu          0.8232450000000001  
         Cu7       1.0000    0.84875   0.00006   0.90772   Biso      1.000     Cu          0.8232889999999999  
         Cu8       1.0000    0.65125   0.99994   0.40772   Biso      1.000     Cu          0.8232139999999999  
         Cu9       1.0000    0.99994   0.40772   0.65125   Biso      1.000     Cu          0.818206  
         Cu10      1.0000    0.09228   0.34875   0.49994   Biso      1.000     Cu          0.81796   
         Cu11      1.0000    0.50006   0.59228   0.15125   Biso      1.000     Cu          0.822881  
         Cu12      1.0000    0.00006   0.90772   0.84875   Biso      1.000     Cu          0.8232079999999999  
         Nd1       1.0000    0.39676   0.39676   0.39676   Biso      1.000     Nd          1.976822  
         Nd2       1.0000    0.10324   0.60324   0.89676   Biso      1.000     Nd          1.976625  
         Nd3       1.0000    0.89676   0.10324   0.60324   Biso      1.000     Nd          1.977213  
         Nd4       1.0000    0.60324   0.89676   0.10324   Biso      1.000     Nd          1.978386  
         O1        1.0000    0.50830   0.45040   0.31980   Biso      1.000     O          -0.540741           
         O2        1.0000    0.86720   0.09790   0.85930   Biso      1.000     O          -0.419461           
         O3        1.0000    0.88690   0.14030   0.74100   Biso      1.000     O          -0.491566           
         O4        1.0000    0.90290   0.95520   0.82180   Biso      1.000     O          -0.549388           
         O5        1.0000    0.87070   0.99240   0.69930   Biso      1.000     O          -0.39605999999999997          
         O6        1.0000    0.00830   0.04960   0.68020   Biso      1.000     O          -0.540736           
         O7        1.0000    0.04630   0.98180   0.78010   Biso      1.000     O          -0.41101899999999997          
         O8        1.0000    0.45370   0.01820   0.28010   Biso      1.000     O          -0.411021           
         O9        1.0000    0.49170   0.95040   0.18020   Biso      1.000     O          -0.540261           
         O10       1.0000    0.62930   0.00760   0.19930   Biso      1.000     O          -0.397221           
         O11       1.0000    0.78010   0.04630   0.98180   Biso      1.000     O          -0.41091400000000006          
         O12       1.0000    0.68020   0.00830   0.04960   Biso      1.000     O          -0.539886           
         O13       1.0000    0.13280   0.59790   0.64070   Biso      1.000     O          -0.420951           
         O14       1.0000    0.11310   0.64030   0.75900   Biso      1.000     O          -0.49373500000000003          
         O15       1.0000    0.09710   0.45520   0.67820   Biso      1.000     O          -0.5546399999999999           
         O16       1.0000    0.12930   0.49240   0.80070   Biso      1.000     O          -0.388633           
         O17       1.0000    0.99170   0.54960   0.81980   Biso      1.000     O          -0.5440119999999999           
         O18       1.0000    0.59710   0.04480   0.32180   Biso      1.000     O          -0.5491510000000001           
         O19       1.0000    0.95370   0.48180   0.71990   Biso      1.000     O          -0.41238100000000005          
         O20       1.0000    0.61310   0.85970   0.24100   Biso      1.000     O          -0.49233599999999994          
         O21       1.0000    0.63280   0.90210   0.35930   Biso      1.000     O          -0.419917           
         O22       1.0000    0.69930   0.87070   0.99240   Biso      1.000     O          -0.396919           
         O23       1.0000    0.82180   0.90290   0.95520   Biso      1.000     O          -0.548999           
         O24       1.0000    0.74100   0.88690   0.14030   Biso      1.000     O          -0.492129           
         O25       1.0000    0.85930   0.86720   0.09790   Biso      1.000     O          -0.419774           
         O26       1.0000    0.38690   0.35970   0.25900   Biso      1.000     O          -0.492227           
         O27       1.0000    0.40290   0.54480   0.17820   Biso      1.000     O          -0.550212           
         O28       1.0000    0.54630   0.51820   0.21990   Biso      1.000     O          -0.41100200000000003          
         O29       1.0000    0.37070   0.50760   0.30070   Biso      1.000     O          -0.393502           
         O30       1.0000    0.36720   0.40210   0.14070   Biso      1.000     O          -0.419641           
         O31       1.0000    0.21990   0.54630   0.51820   Biso      1.000     O          -0.40993  
         O32       1.0000    0.95040   0.18020   0.49170   Biso      1.000     O          -0.545711           
         O33       1.0000    0.71990   0.95370   0.48180   Biso      1.000     O          -0.410804           
         O34       1.0000    0.98180   0.78010   0.04630   Biso      1.000     O          -0.41085200000000005          
         O35       1.0000    0.04960   0.68020   0.00830   Biso      1.000     O          -0.5397270000000001           
         O36       1.0000    0.99240   0.69930   0.87070   Biso      1.000     O          -0.394196           
         O37       1.0000    0.95520   0.82180   0.90290   Biso      1.000     O          -0.549608           
         O38       1.0000    0.14030   0.74100   0.88690   Biso      1.000     O          -0.492609           
         O39       1.0000    0.09790   0.85930   0.86720   Biso      1.000     O          -0.41969399999999996          
         O40       1.0000    0.14070   0.36720   0.40210   Biso      1.000     O          -0.419983           
         O41       1.0000    0.28010   0.45370   0.01820   Biso      1.000     O          -0.411145           
         O42       1.0000    0.18020   0.49170   0.95040   Biso      1.000     O          -0.5411050000000001           
         O43       1.0000    0.19930   0.62930   0.00760   Biso      1.000     O          -0.395345           
         O44       1.0000    0.32180   0.59710   0.04480   Biso      1.000     O          -0.549906           
         O45       1.0000    0.24100   0.61310   0.85970   Biso      1.000     O          -0.491699           
         O46       1.0000    0.35930   0.63280   0.90210   Biso      1.000     O          -0.419407           
         O47       1.0000    0.25900   0.38690   0.35970   Biso      1.000     O          -0.494792           
         O48       1.0000    0.17820   0.40290   0.54480   Biso      1.000     O          -0.5561510000000001           
         O49       1.0000    0.30070   0.37070   0.50760   Biso      1.000     O          -0.385891           
         O50       1.0000    0.59790   0.64070   0.13280   Biso      1.000     O          -0.41981  
         O51       1.0000    0.01820   0.28010   0.45370   Biso      1.000     O          -0.411208           
         O52       1.0000    0.64030   0.75900   0.11310   Biso      1.000     O          -0.492226           
         O53       1.0000    0.49240   0.80070   0.12930   Biso      1.000     O          -0.396306           
         O54       1.0000    0.00760   0.19930   0.62930   Biso      1.000     O          -0.387534           
         O55       1.0000    0.31980   0.50830   0.45040   Biso      1.000     O          -0.545809           
         O56       1.0000    0.85970   0.24100   0.61310   Biso      1.000     O          -0.495142           
         O57       1.0000    0.90210   0.35930   0.63280   Biso      1.000     O          -0.418824           
         O58       1.0000    0.64070   0.13280   0.59790   Biso      1.000     O          -0.41974799999999995          
         O59       1.0000    0.75900   0.11310   0.64030   Biso      1.000     O          -0.492316           
         O60       1.0000    0.67820   0.09710   0.45520   Biso      1.000     O          -0.549984           
         O61       1.0000    0.51820   0.21990   0.54630   Biso      1.000     O          -0.411157           
         O62       1.0000    0.45040   0.31980   0.50830   Biso      1.000     O          -0.541227           
         O63       1.0000    0.50760   0.30070   0.37070   Biso      1.000     O          -0.39477199999999996          
         O64       1.0000    0.54480   0.17820   0.40290   Biso      1.000     O          -0.550056           
         O65       1.0000    0.35970   0.25900   0.38690   Biso      1.000     O          -0.4917   
         O66       1.0000    0.40210   0.14070   0.36720   Biso      1.000     O          -0.419199           
         O67       1.0000    0.80070   0.12930   0.49240   Biso      1.000     O          -0.393353           
         O68       1.0000    0.81980   0.99170   0.54960   Biso      1.000     O          -0.539971           
         O69       1.0000    0.48180   0.71990   0.95370   Biso      1.000     O          -0.410926           
         O70       1.0000    0.54960   0.81980   0.99170   Biso      1.000     O          -0.5401560000000001           
         O71       1.0000    0.45520   0.67820   0.09710   Biso      1.000     O          -0.549481           
         O72       1.0000    0.04480   0.32180   0.59710   Biso      1.000     O          -0.559037 