
##########################################################################
#               Crystallographic Information Format file
#               Produced by PyCifRW module
#
#  This is a CIF file.  CIF has been adopted by the International
#  Union of Crystallography as the standard for data archiving and
#  transmission.
#
#  For information on this file format, follow the CIF links at
#  http://www.iucr.org
##########################################################################

data_image0

_cell_length_a                          17.58
_cell_length_b                          17.58
_cell_length_c                          17.58
_cell_angle_alpha                       90
_cell_angle_beta                        90
_cell_angle_gamma                       90
_symmetry_space_group_name_H-M          'P 1'
_symmetry_int_tables_number             1
loop_
  _symmetry_equiv_pos_as_xyz
         'x, y, z' 
loop_
  _atom_site_label
  _atom_site_occupancy
  _atom_site_fract_x
  _atom_site_fract_y
  _atom_site_fract_z
  _atom_site_thermal_displace_type
  _atom_site_B_iso_or_equiv
  _atom_site_type_symbol
  _atom_site_charge
         C1        1.0000    0.59100   0.50770   0.76370   Biso      1.000     C          0.22931300000000002           
         C2        1.0000    0.90900   0.49230   0.26370   Biso      1.000     C          0.23093000000000002           
         C3        1.0000    0.58640   0.78980   0.61470   Biso      1.000     C          0.541792  
         C4        1.0000    0.51290   0.74230   0.49960   Biso      1.000     C          0.5558310000000001  
         C5        1.0000    0.26370   0.90900   0.49230   Biso      1.000     C          0.230944  
         C6        1.0000    0.99960   0.98710   0.25770   Biso      1.000     C          0.555791  
         C7        1.0000    0.11470   0.91360   0.21020   Biso      1.000     C          0.5418890000000001  
         C8        1.0000    0.09100   0.99230   0.23630   Biso      1.000     C          0.23093200000000003           
         C9        1.0000    0.28980   0.88530   0.41360   Biso      1.000     C          0.541896  
         C10       1.0000    0.49960   0.51290   0.74230   Biso      1.000     C          0.556315  
         C11       1.0000    0.91360   0.21020   0.11470   Biso      1.000     C          0.5420020000000001  
         C12       1.0000    0.98710   0.25770   0.99960   Biso      1.000     C          0.555747  
         C13       1.0000    0.61470   0.58640   0.78980   Biso      1.000     C          0.542261  
         C14       1.0000    0.50040   0.01290   0.75770   Biso      1.000     C          0.555792  
         C15       1.0000    0.38530   0.08640   0.71020   Biso      1.000     C          0.54195   
         C16       1.0000    0.40900   0.00770   0.73630   Biso      1.000     C          0.23095900000000003           
         C17       1.0000    0.00040   0.48710   0.24230   Biso      1.000     C          0.5557810000000001  
         C18       1.0000    0.99230   0.23630   0.09100   Biso      1.000     C          0.23089899999999997           
         C19       1.0000    0.24230   0.00040   0.48710   Biso      1.000     C          0.5558069999999999  
         C20       1.0000    0.50770   0.76370   0.59100   Biso      1.000     C          0.23115700000000003           
         C21       1.0000    0.73630   0.40900   0.00770   Biso      1.000     C          0.22963899999999998           
         C22       1.0000    0.49230   0.26370   0.90900   Biso      1.000     C          0.230208  
         C23       1.0000    0.41360   0.28980   0.88530   Biso      1.000     C          0.541515  
         C24       1.0000    0.48710   0.24230   0.00040   Biso      1.000     C          0.555238  
         C25       1.0000    0.25770   0.99960   0.98710   Biso      1.000     C          0.555774  
         C26       1.0000    0.21020   0.11470   0.91360   Biso      1.000     C          0.541876  
         C27       1.0000    0.23630   0.09100   0.99230   Biso      1.000     C          0.23098000000000002           
         C28       1.0000    0.78980   0.61470   0.58640   Biso      1.000     C          0.54201   
         C29       1.0000    0.74230   0.49960   0.51290   Biso      1.000     C          0.555711  
         C30       1.0000    0.00770   0.73630   0.40900   Biso      1.000     C          0.23094   
         C31       1.0000    0.08640   0.71020   0.38530   Biso      1.000     C          0.5418970000000001  
         C32       1.0000    0.01290   0.75770   0.50040   Biso      1.000     C          0.555804  
         C33       1.0000    0.75770   0.50040   0.01290   Biso      1.000     C          0.555421  
         C34       1.0000    0.71020   0.38530   0.08640   Biso      1.000     C          0.5414859999999999  
         C35       1.0000    0.76370   0.59100   0.50770   Biso      1.000     C          0.23085300000000003           
         C36       1.0000    0.88530   0.41360   0.28980   Biso      1.000     C          0.541842  
         Cu1       1.0000    0.15196   0.00127   0.09444   Biso      1.000     Cu          0.8222229999999999  
         Cu2       1.0000    0.59444   0.34804   0.99873   Biso      1.000     Cu          0.820521  
         Cu3       1.0000    0.09444   0.15196   0.00127   Biso      1.000     Cu          0.8221950000000001  
         Cu4       1.0000    0.40556   0.84804   0.50127   Biso      1.000     Cu          0.822148  
         Cu5       1.0000    0.65196   0.49873   0.90556   Biso      1.000     Cu          0.821212  
         Cu6       1.0000    0.90556   0.65196   0.49873   Biso      1.000     Cu          0.8222379999999999  
         Cu7       1.0000    0.34804   0.99873   0.59444   Biso      1.000     Cu          0.822207  
         Cu8       1.0000    0.50127   0.40556   0.84804   Biso      1.000     Cu          0.8205709999999999  
         Cu9       1.0000    0.00127   0.09444   0.15196   Biso      1.000     Cu          0.822232  
         Cu10      1.0000    0.99873   0.59444   0.34804   Biso      1.000     Cu          0.822192  
         Cu11      1.0000    0.49873   0.90556   0.65196   Biso      1.000     Cu          0.822169  
         Cu12      1.0000    0.84804   0.50127   0.40556   Biso      1.000     Cu          0.8221719999999999  
         O1        1.0000    0.32350   0.98790   0.95310   Biso      1.000     O          -0.548673           
         O2        1.0000    0.75980   0.38900   0.13920   Biso      1.000     O          -0.520541           
         O3        1.0000    0.82350   0.51210   0.04690   Biso      1.000     O          -0.550298           
         O4        1.0000    0.80130   0.37310   0.99100   Biso      1.000     O          -0.379071           
         O5        1.0000    0.67780   0.40210   0.95390   Biso      1.000     O          -0.579263           
         O6        1.0000    0.99100   0.80130   0.37310   Biso      1.000     O          -0.38106100000000004          
         O7        1.0000    0.04690   0.82350   0.51210   Biso      1.000     O          -0.5486989999999999           
         O8        1.0000    0.64400   0.36760   0.09810   Biso      1.000     O          -0.40401  
         O9        1.0000    0.13920   0.75980   0.38900   Biso      1.000     O          -0.522436           
         O10       1.0000    0.28110   0.04630   0.51910   Biso      1.000     O          -0.37459000000000003          
         O11       1.0000    0.35600   0.86760   0.40190   Biso      1.000     O          -0.405088           
         O12       1.0000    0.24020   0.88900   0.36080   Biso      1.000     O          -0.522513           
         O13       1.0000    0.17650   0.01210   0.45310   Biso      1.000     O          -0.548768           
         O14       1.0000    0.19870   0.87310   0.50900   Biso      1.000     O          -0.38108600000000004          
         O15       1.0000    0.32220   0.90210   0.54610   Biso      1.000     O          -0.5815   
         O16       1.0000    0.09810   0.64400   0.36760   Biso      1.000     O          -0.405111           
         O17       1.0000    0.71890   0.54630   0.98090   Biso      1.000     O          -0.374357           
         O18       1.0000    0.95390   0.67780   0.40210   Biso      1.000     O          -0.581458           
         O19       1.0000    0.21890   0.95370   0.01910   Biso      1.000     O          -0.37453200000000003          
         O20       1.0000    0.30130   0.12690   0.00900   Biso      1.000     O          -0.381209           
         O21       1.0000    0.17780   0.09790   0.04610   Biso      1.000     O          -0.58152  
         O22       1.0000    0.54610   0.32220   0.90210   Biso      1.000     O          -0.579019           
         O23       1.0000    0.50900   0.19870   0.87310   Biso      1.000     O          -0.380886           
         O24       1.0000    0.45310   0.17650   0.01210   Biso      1.000     O          -0.548686           
         O25       1.0000    0.36080   0.24020   0.88900   Biso      1.000     O          -0.522191           
         O26       1.0000    0.78110   0.45370   0.48090   Biso      1.000     O          -0.374786           
         O27       1.0000    0.85600   0.63240   0.59810   Biso      1.000     O          -0.40520300000000004          
         O28       1.0000    0.74020   0.61100   0.63920   Biso      1.000     O          -0.522451           
         O29       1.0000    0.67650   0.48790   0.54690   Biso      1.000     O          -0.549133           
         O30       1.0000    0.69870   0.62690   0.49100   Biso      1.000     O          -0.381362           
         O31       1.0000    0.82220   0.59790   0.45390   Biso      1.000     O          -0.581492           
         O32       1.0000    0.40190   0.35600   0.86760   Biso      1.000     O          -0.404133           
         O33       1.0000    0.51910   0.28110   0.04630   Biso      1.000     O          -0.374026           
         O34       1.0000    0.14400   0.13240   0.90190   Biso      1.000     O          -0.405111           
         O35       1.0000    0.25980   0.11100   0.86080   Biso      1.000     O          -0.522472           
         O36       1.0000    0.90210   0.54610   0.32220   Biso      1.000     O          -0.581492           
         O37       1.0000    0.98090   0.71890   0.54630   Biso      1.000     O          -0.374541           
         O38       1.0000    0.49100   0.69870   0.62690   Biso      1.000     O          -0.38274400000000003          
         O39       1.0000    0.36760   0.09810   0.64400   Biso      1.000     O          -0.40516599999999997          
         O40       1.0000    0.38900   0.13920   0.75980   Biso      1.000     O          -0.522725           
         O41       1.0000    0.51210   0.04690   0.82350   Biso      1.000     O          -0.54888  
         O42       1.0000    0.37310   0.99100   0.80130   Biso      1.000     O          -0.381158           
         O43       1.0000    0.40210   0.95390   0.67780   Biso      1.000     O          -0.581511           
         O44       1.0000    0.95310   0.32350   0.98790   Biso      1.000     O          -0.54895  
         O45       1.0000    0.54630   0.98090   0.71890   Biso      1.000     O          -0.374546           
         O46       1.0000    0.86080   0.25980   0.11100   Biso      1.000     O          -0.522621           
         O47       1.0000    0.01910   0.21890   0.95370   Biso      1.000     O          -0.374676           
         O48       1.0000    0.04630   0.51910   0.28110   Biso      1.000     O          -0.374542           
         O49       1.0000    0.86760   0.40190   0.35600   Biso      1.000     O          -0.40508  
         O50       1.0000    0.88900   0.36080   0.24020   Biso      1.000     O          -0.52255  
         O51       1.0000    0.01210   0.45310   0.17650   Biso      1.000     O          -0.548564           
         O52       1.0000    0.87310   0.50900   0.19870   Biso      1.000     O          -0.380973           
         O53       1.0000    0.90190   0.14400   0.13240   Biso      1.000     O          -0.405134           
         O54       1.0000    0.45390   0.82220   0.59790   Biso      1.000     O          -0.581493           
         O55       1.0000    0.00900   0.30130   0.12690   Biso      1.000     O          -0.38127  
         O56       1.0000    0.54690   0.67650   0.48790   Biso      1.000     O          -0.54875  
         O57       1.0000    0.13240   0.90190   0.14400   Biso      1.000     O          -0.405066           
         O58       1.0000    0.11100   0.86080   0.25980   Biso      1.000     O          -0.522406           
         O59       1.0000    0.98790   0.95310   0.32350   Biso      1.000     O          -0.548659           
         O60       1.0000    0.12690   0.00900   0.30130   Biso      1.000     O          -0.380969           
         O61       1.0000    0.09790   0.04610   0.17780   Biso      1.000     O          -0.581485           
         O62       1.0000    0.04610   0.17780   0.09790   Biso      1.000     O          -0.581483           
         O63       1.0000    0.63920   0.74020   0.61100   Biso      1.000     O          -0.523145           
         O64       1.0000    0.59810   0.85600   0.63240   Biso      1.000     O          -0.405368           
         O65       1.0000    0.48090   0.78110   0.45370   Biso      1.000     O          -0.374738           
         O66       1.0000    0.45370   0.48090   0.78110   Biso      1.000     O          -0.37322  
         O67       1.0000    0.63240   0.59810   0.85600   Biso      1.000     O          -0.40933200000000003          
         O68       1.0000    0.61100   0.63920   0.74020   Biso      1.000     O          -0.519393           
         O69       1.0000    0.48790   0.54690   0.67650   Biso      1.000     O          -0.546199           
         O70       1.0000    0.62690   0.49100   0.69870   Biso      1.000     O          -0.382419           
         O71       1.0000    0.59790   0.45390   0.82220   Biso      1.000     O          -0.575781           
         O72       1.0000    0.95370   0.01910   0.21890   Biso      1.000     O          -0.374531           
         Pr1       1.0000    0.10136   0.89864   0.39864   Biso      1.000     Pr          1.987052  
         Pr2       1.0000    0.60136   0.60136   0.60136   Biso      1.000     Pr          1.986584  
         Pr3       1.0000    0.39864   0.10136   0.89864   Biso      1.000     Pr          1.987041  
         Pr4       1.0000    0.89864   0.39864   0.10136   Biso      1.000     Pr          1.986359 