
##########################################################################
#               Crystallographic Information Format file
#               Produced by PyCifRW module
#
#  This is a CIF file.  CIF has been adopted by the International
#  Union of Crystallography as the standard for data archiving and
#  transmission.
#
#  For information on this file format, follow the CIF links at
#  http://www.iucr.org
##########################################################################

data_image0

_cell_length_a                          17.5235
_cell_length_b                          17.5235
_cell_length_c                          17.5235
_cell_angle_alpha                       90
_cell_angle_beta                        90
_cell_angle_gamma                       90
_symmetry_space_group_name_H-M          'P 1'
_symmetry_int_tables_number             1
loop_
  _symmetry_equiv_pos_as_xyz
         'x, y, z' 
loop_
  _atom_site_label
  _atom_site_occupancy
  _atom_site_fract_x
  _atom_site_fract_y
  _atom_site_fract_z
  _atom_site_thermal_displace_type
  _atom_site_B_iso_or_equiv
  _atom_site_type_symbol
  _atom_site_charge
         C1        1.0000    0.49970   0.97940   0.74540   Biso      1.000     C          0.544057  
         C2        1.0000    0.00030   0.02060   0.24540   Biso      1.000     C          0.544057  
         C3        1.0000    0.24540   0.00030   0.02060   Biso      1.000     C          0.544059  
         C4        1.0000    0.98650   0.77010   0.41610   Biso      1.000     C          0.200473  
         C5        1.0000    0.88860   0.59350   0.20510   Biso      1.000     C          0.5364369999999999  
         C6        1.0000    0.91610   0.51350   0.22990   Biso      1.000     C          0.200473  
         C7        1.0000    0.90650   0.79490   0.38860   Biso      1.000     C          0.5364359999999999  
         C8        1.0000    0.99970   0.52060   0.25460   Biso      1.000     C          0.544059  
         C9        1.0000    0.27010   0.08390   0.01350   Biso      1.000     C          0.200474  
         C10       1.0000    0.38860   0.90650   0.79490   Biso      1.000     C          0.5364359999999999  
         C11       1.0000    0.41610   0.98650   0.77010   Biso      1.000     C          0.200473  
         C12       1.0000    0.51350   0.22990   0.91610   Biso      1.000     C          0.200475  
         C13       1.0000    0.61140   0.40650   0.70510   Biso      1.000     C          0.5364369999999999  
         C14       1.0000    0.58390   0.48650   0.72990   Biso      1.000     C          0.200473  
         C15       1.0000    0.59350   0.20510   0.88860   Biso      1.000     C          0.5364369999999999  
         C16       1.0000    0.50030   0.47940   0.75460   Biso      1.000     C          0.5440550000000001  
         C17       1.0000    0.11140   0.09350   0.29490   Biso      1.000     C          0.5364359999999999  
         C18       1.0000    0.52060   0.25460   0.99970   Biso      1.000     C          0.544057  
         C19       1.0000    0.29490   0.11140   0.09350   Biso      1.000     C          0.536438  
         C20       1.0000    0.97940   0.74540   0.49970   Biso      1.000     C          0.544058  
         C21       1.0000    0.40650   0.70510   0.61140   Biso      1.000     C          0.5364359999999999  
         C22       1.0000    0.02060   0.24540   0.00030   Biso      1.000     C          0.544057  
         C23       1.0000    0.20510   0.88860   0.59350   Biso      1.000     C          0.5364359999999999  
         C24       1.0000    0.22990   0.91610   0.51350   Biso      1.000     C          0.200473  
         C25       1.0000    0.01350   0.27010   0.08390   Biso      1.000     C          0.200473  
         C26       1.0000    0.25460   0.99970   0.52060   Biso      1.000     C          0.5440560000000001  
         C27       1.0000    0.09350   0.29490   0.11140   Biso      1.000     C          0.5364359999999999  
         C28       1.0000    0.77010   0.41610   0.98650   Biso      1.000     C          0.200474  
         C29       1.0000    0.79490   0.38860   0.90650   Biso      1.000     C          0.536439  
         C30       1.0000    0.47940   0.75460   0.50030   Biso      1.000     C          0.544059  
         C31       1.0000    0.70510   0.61140   0.40650   Biso      1.000     C          0.5364369999999999  
         C32       1.0000    0.48650   0.72990   0.58390   Biso      1.000     C          0.200474  
         C33       1.0000    0.72990   0.58390   0.48650   Biso      1.000     C          0.200473  
         C34       1.0000    0.75460   0.50030   0.47940   Biso      1.000     C          0.544058  
         C35       1.0000    0.74540   0.49970   0.97940   Biso      1.000     C          0.544057  
         C36       1.0000    0.08390   0.01350   0.27010   Biso      1.000     C          0.200472  
         Cu1       1.0000    0.00476   0.41463   0.14612   Biso      1.000     Cu          0.840399  
         Cu2       1.0000    0.64612   0.49524   0.58537   Biso      1.000     Cu          0.840398  
         Cu3       1.0000    0.85388   0.50476   0.08537   Biso      1.000     Cu          0.840399  
         Cu4       1.0000    0.50476   0.08537   0.85388   Biso      1.000     Cu          0.840399  
         Cu5       1.0000    0.14612   0.00476   0.41463   Biso      1.000     Cu          0.840398  
         Cu6       1.0000    0.35388   0.99524   0.91463   Biso      1.000     Cu          0.840399  
         Cu7       1.0000    0.49524   0.58537   0.64612   Biso      1.000     Cu          0.840399  
         Cu8       1.0000    0.91463   0.35388   0.99524   Biso      1.000     Cu          0.8404010000000001  
         Cu9       1.0000    0.08537   0.85388   0.50476   Biso      1.000     Cu          0.8404    
         Cu10      1.0000    0.58537   0.64612   0.49524   Biso      1.000     Cu          0.8404    
         Cu11      1.0000    0.41463   0.14612   0.00476   Biso      1.000     Cu          0.8404020000000001  
         Cu12      1.0000    0.99524   0.91463   0.35388   Biso      1.000     Cu          0.840397  
         La1       1.0000    0.89453   0.60547   0.39453   Biso      1.000     La          1.82297   
         La2       1.0000    0.60547   0.39453   0.89453   Biso      1.000     La          1.8229669999999998  
         La3       1.0000    0.10547   0.10547   0.10547   Biso      1.000     La          1.82297   
         La4       1.0000    0.39453   0.89453   0.60547   Biso      1.000     La          1.822971  
         O1        1.0000    0.51080   0.71490   0.45050   Biso      1.000     O          -0.412315           
         O2        1.0000    0.75420   0.61390   0.35550   Biso      1.000     O          -0.45204099999999997          
         O3        1.0000    0.63480   0.62950   0.39770   Biso      1.000     O          -0.426336           
         O4        1.0000    0.44400   0.81540   0.48840   Biso      1.000     O          -0.48734399999999994          
         O5        1.0000    0.79430   0.62850   0.50330   Biso      1.000     O          -0.41681599999999996          
         O6        1.0000    0.67180   0.59160   0.53870   Biso      1.000     O          -0.534177           
         O7        1.0000    0.53870   0.67180   0.59160   Biso      1.000     O          -0.534179           
         O8        1.0000    0.71490   0.45050   0.51080   Biso      1.000     O          -0.412313           
         O9        1.0000    0.50330   0.79430   0.62850   Biso      1.000     O          -0.41681599999999996          
         O10       1.0000    0.39770   0.63480   0.62950   Biso      1.000     O          -0.426332           
         O11       1.0000    0.24580   0.11390   0.14450   Biso      1.000     O          -0.452042           
         O12       1.0000    0.36520   0.12950   0.10230   Biso      1.000     O          -0.426335           
         O13       1.0000    0.35550   0.75420   0.61390   Biso      1.000     O          -0.45203999999999994          
         O14       1.0000    0.81540   0.48840   0.44400   Biso      1.000     O          -0.487342           
         O15       1.0000    0.13480   0.87050   0.60230   Biso      1.000     O          -0.426335           
         O16       1.0000    0.98920   0.28510   0.95050   Biso      1.000     O          -0.41231599999999996          
         O17       1.0000    0.68460   0.51160   0.94400   Biso      1.000     O          -0.487342           
         O18       1.0000    0.29430   0.87150   0.49670   Biso      1.000     O          -0.416813           
         O19       1.0000    0.17180   0.90840   0.46130   Biso      1.000     O          -0.5341779999999999           
         O20       1.0000    0.05600   0.18460   0.98840   Biso      1.000     O          -0.487343           
         O21       1.0000    0.31540   0.01160   0.55600   Biso      1.000     O          -0.487342           
         O22       1.0000    0.21490   0.04950   0.48920   Biso      1.000     O          -0.412314           
         O23       1.0000    0.96130   0.32820   0.09160   Biso      1.000     O          -0.5341779999999999           
         O24       1.0000    0.78510   0.54950   0.01080   Biso      1.000     O          -0.412314           
         O25       1.0000    0.99670   0.20570   0.12850   Biso      1.000     O          -0.416817           
         O26       1.0000    0.86520   0.37050   0.89770   Biso      1.000     O          -0.426334           
         O27       1.0000    0.10230   0.36520   0.12950   Biso      1.000     O          -0.426331           
         O28       1.0000    0.25420   0.88610   0.64450   Biso      1.000     O          -0.45204099999999997          
         O29       1.0000    0.70570   0.37150   0.00330   Biso      1.000     O          -0.416813           
         O30       1.0000    0.82820   0.40840   0.03870   Biso      1.000     O          -0.5341779999999999           
         O31       1.0000    0.20570   0.12850   0.99670   Biso      1.000     O          -0.416817           
         O32       1.0000    0.74580   0.38610   0.85550   Biso      1.000     O          -0.45204099999999997          
         O33       1.0000    0.14450   0.24580   0.11390   Biso      1.000     O          -0.452038           
         O34       1.0000    0.95050   0.98920   0.28510   Biso      1.000     O          -0.412314           
         O35       1.0000    0.98840   0.05600   0.18460   Biso      1.000     O          -0.487342           
         O36       1.0000    0.55600   0.31540   0.01160   Biso      1.000     O          -0.48734399999999994          
         O37       1.0000    0.61390   0.35550   0.75420   Biso      1.000     O          -0.45203999999999994          
         O38       1.0000    0.62950   0.39770   0.63480   Biso      1.000     O          -0.426331           
         O39       1.0000    0.46130   0.17180   0.90840   Biso      1.000     O          -0.534179           
         O40       1.0000    0.62850   0.50330   0.79430   Biso      1.000     O          -0.416817           
         O41       1.0000    0.59160   0.53870   0.67180   Biso      1.000     O          -0.534175           
         O42       1.0000    0.49670   0.29430   0.87150   Biso      1.000     O          -0.416818           
         O43       1.0000    0.48840   0.44400   0.81540   Biso      1.000     O          -0.48734099999999997          
         O44       1.0000    0.45050   0.51080   0.71490   Biso      1.000     O          -0.412315           
         O45       1.0000    0.60230   0.13480   0.87050   Biso      1.000     O          -0.426332           
         O46       1.0000    0.64450   0.25420   0.88610   Biso      1.000     O          -0.452039           
         O47       1.0000    0.11390   0.14450   0.24580   Biso      1.000     O          -0.45203999999999994          
         O48       1.0000    0.12950   0.10230   0.36520   Biso      1.000     O          -0.426332           
         O49       1.0000    0.12850   0.99670   0.20570   Biso      1.000     O          -0.416817           
         O50       1.0000    0.09160   0.96130   0.32820   Biso      1.000     O          -0.5341739999999999           
         O51       1.0000    0.54950   0.01080   0.78510   Biso      1.000     O          -0.412314           
         O52       1.0000    0.51160   0.94400   0.68460   Biso      1.000     O          -0.487342           
         O53       1.0000    0.48920   0.21490   0.04950   Biso      1.000     O          -0.412315           
         O54       1.0000    0.40840   0.03870   0.82820   Biso      1.000     O          -0.5341739999999999           
         O55       1.0000    0.28510   0.95050   0.98920   Biso      1.000     O          -0.412313           
         O56       1.0000    0.01080   0.78510   0.54950   Biso      1.000     O          -0.412315           
         O57       1.0000    0.94400   0.68460   0.51160   Biso      1.000     O          -0.487343           
         O58       1.0000    0.88610   0.64450   0.25420   Biso      1.000     O          -0.45204099999999997          
         O59       1.0000    0.87050   0.60230   0.13480   Biso      1.000     O          -0.426333           
         O60       1.0000    0.03870   0.82820   0.40840   Biso      1.000     O          -0.5341779999999999           
         O61       1.0000    0.87150   0.49670   0.29430   Biso      1.000     O          -0.41681599999999996          
         O62       1.0000    0.32820   0.09160   0.96130   Biso      1.000     O          -0.534177           
         O63       1.0000    0.90840   0.46130   0.17180   Biso      1.000     O          -0.534175           
         O64       1.0000    0.01160   0.55600   0.31540   Biso      1.000     O          -0.487342           
         O65       1.0000    0.04950   0.48920   0.21490   Biso      1.000     O          -0.412313           
         O66       1.0000    0.89770   0.86520   0.37050   Biso      1.000     O          -0.426332           
         O67       1.0000    0.85550   0.74580   0.38610   Biso      1.000     O          -0.45203999999999994          
         O68       1.0000    0.38610   0.85550   0.74580   Biso      1.000     O          -0.452039           
         O69       1.0000    0.37050   0.89770   0.86520   Biso      1.000     O          -0.426333           
         O70       1.0000    0.37150   0.00330   0.70570   Biso      1.000     O          -0.416821           
         O71       1.0000    0.00330   0.70570   0.37150   Biso      1.000     O          -0.416815           
         O72       1.0000    0.18460   0.98840   0.05600   Biso      1.000     O          -0.487342 