
##########################################################################
#               Crystallographic Information Format file
#               Produced by PyCifRW module
#
#  This is a CIF file.  CIF has been adopted by the International
#  Union of Crystallography as the standard for data archiving and
#  transmission.
#
#  For information on this file format, follow the CIF links at
#  http://www.iucr.org
##########################################################################

data_image0

_cell_length_a                          10.3142
_cell_length_b                          10.3142
_cell_length_c                          11.418
_cell_angle_alpha                       84.9945
_cell_angle_beta                        84.9945
_cell_angle_gamma                       65.656
_symmetry_space_group_name_H-M          'P 1'
_symmetry_int_tables_number             1
loop_
  _symmetry_equiv_pos_as_xyz
         'x, y, z' 
loop_
  _atom_site_label
  _atom_site_occupancy
  _atom_site_fract_x
  _atom_site_fract_y
  _atom_site_fract_z
  _atom_site_thermal_displace_type
  _atom_site_B_iso_or_equiv
  _atom_site_type_symbol
  _atom_site_charge
         C1        1.0000    0.16130   0.16750   0.76150   Biso      1.000     C          -0.083353           
         C2        1.0000    0.73564   0.92104   0.65650   Biso      1.000     C          -0.041534           
         C3        1.0000    0.70798   0.85358   0.56820   Biso      1.000     C          -0.066179           
         C4        1.0000    0.87150   0.63050   0.63970   Biso      1.000     C          -0.038488           
         C5        1.0000    0.90000   0.69340   0.72910   Biso      1.000     C          -0.085094           
         C6        1.0000    0.83250   0.83870   0.73850   Biso      1.000     C          -0.083104           
         C7        1.0000    0.28770   0.50150   0.74540   Biso      1.000     C          0.518874  
         C8        1.0000    0.91816   0.34036   0.84210   Biso      1.000     C          0.593998  
         C9        1.0000    0.07896   0.26436   0.84350   Biso      1.000     C          -0.04152  
         C10       1.0000    0.14642   0.29202   0.93180   Biso      1.000     C          -0.066217           
         C11       1.0000    0.36950   0.12850   0.86030   Biso      1.000     C          -0.038425           
         C12       1.0000    0.30660   0.10000   0.77090   Biso      1.000     C          -0.085166           
         C13       1.0000    0.92104   0.73564   0.15650   Biso      1.000     C          -0.042349           
         C14       1.0000    0.49850   0.71230   0.75460   Biso      1.000     C          0.518723  
         C15       1.0000    0.34036   0.91816   0.34210   Biso      1.000     C          0.594144  
         C16       1.0000    0.26436   0.07896   0.34350   Biso      1.000     C          -0.041108           
         C17       1.0000    0.29202   0.14642   0.43180   Biso      1.000     C          -0.065602           
         C18       1.0000    0.12850   0.36950   0.36030   Biso      1.000     C          -0.037456           
         C19       1.0000    0.10000   0.30660   0.27090   Biso      1.000     C          -0.084741           
         C20       1.0000    0.16750   0.16130   0.26150   Biso      1.000     C          -0.082159           
         C21       1.0000    0.65964   0.08184   0.65790   Biso      1.000     C          0.594358  
         C22       1.0000    0.71230   0.49850   0.25460   Biso      1.000     C          0.518848  
         C23       1.0000    0.08184   0.65964   0.15790   Biso      1.000     C          0.594204  
         C24       1.0000    0.50150   0.28770   0.24540   Biso      1.000     C          0.519031  
         C25       1.0000    0.83870   0.83250   0.23850   Biso      1.000     C          -0.084035           
         C26       1.0000    0.69340   0.90000   0.22910   Biso      1.000     C          -0.085137           
         C27       1.0000    0.63050   0.87150   0.13970   Biso      1.000     C          -0.03958  
         C28       1.0000    0.85358   0.70798   0.06820   Biso      1.000     C          -0.066203           
         H1        1.0000    0.79200   0.44600   0.31000   Biso      1.000     H          0.010992  
         H2        1.0000    0.62100   0.29900   0.96100   Biso      1.000     H          0.511265  
         H3        1.0000    0.64030   0.90430   0.50800   Biso      1.000     H          0.13412   
         H4        1.0000    0.91240   0.53240   0.62500   Biso      1.000     H          0.127364  
         H5        1.0000    0.97040   0.63040   0.78700   Biso      1.000     H          0.125912  
         H6        1.0000    0.85220   0.88620   0.80000   Biso      1.000     H          0.12839   
         H7        1.0000    0.20800   0.55400   0.69000   Biso      1.000     H          0.011291  
         H8        1.0000    0.70100   0.37900   0.53900   Biso      1.000     H          0.510976  
         H9        1.0000    0.14780   0.11380   0.20000   Biso      1.000     H          0.128783  
         H10       1.0000    0.09570   0.35970   0.99200   Biso      1.000     H          0.13419   
         H11       1.0000    0.36960   0.02960   0.71300   Biso      1.000     H          0.125933  
         H12       1.0000    0.11380   0.14780   0.70000   Biso      1.000     H          0.128312  
         H13       1.0000    0.44600   0.79200   0.81000   Biso      1.000     H          0.011038  
         H14       1.0000    0.37900   0.70100   0.03900   Biso      1.000     H          0.511255  
         H15       1.0000    0.35970   0.09570   0.49200   Biso      1.000     H          0.134428  
         H16       1.0000    0.08760   0.46760   0.37500   Biso      1.000     H          0.127873  
         H17       1.0000    0.55400   0.20800   0.19000   Biso      1.000     H          0.011558  
         H18       1.0000    0.88620   0.85220   0.30000   Biso      1.000     H          0.127955  
         H19       1.0000    0.63040   0.97040   0.28700   Biso      1.000     H          0.125587  
         H20       1.0000    0.53240   0.91240   0.12500   Biso      1.000     H          0.127151  
         H21       1.0000    0.02960   0.36960   0.21300   Biso      1.000     H          0.126298  
         H22       1.0000    0.29900   0.62100   0.46100   Biso      1.000     H          0.51095   
         H23       1.0000    0.46760   0.08760   0.87500   Biso      1.000     H          0.127526  
         H24       1.0000    0.90430   0.64030   0.00800   Biso      1.000     H          0.133957  
         Mn1       1.0000    0.54089   0.63671   0.48511   Biso      1.000     Mn          1.065396  
         Mn2       1.0000    0.37026   0.62974   0.25000   Biso      1.000     Mn          1.083871  
         Mn3       1.0000    0.62974   0.37026   0.75000   Biso      1.000     Mn          1.083862  
         Mn4       1.0000    0.63671   0.54089   0.98511   Biso      1.000     Mn          1.069481  
         Mn5       1.0000    0.45911   0.36329   0.51489   Biso      1.000     Mn          1.074636  
         Mn6       1.0000    0.36329   0.45911   0.01489   Biso      1.000     Mn          1.070202  
         N1        1.0000    0.77496   0.71096   0.56120   Biso      1.000     N          0.335183  
         N2        1.0000    0.28904   0.22504   0.93880   Biso      1.000     N          0.335214  
         N3        1.0000    0.22504   0.28904   0.43880   Biso      1.000     N          0.335427  
         N4        1.0000    0.71096   0.77496   0.06120   Biso      1.000     N          0.335091  
         O1        1.0000    0.42818   0.85778   0.41996   Biso      1.000     O          -0.569476           
         O2        1.0000    0.31033   0.85813   0.26362   Biso      1.000     O          -0.572341           
         O3        1.0000    0.74305   0.46245   0.15071   Biso      1.000     O          -0.539865           
         O4        1.0000    0.41923   0.63063   0.06035   Biso      1.000     O          -1.044669           
         O5        1.0000    0.53755   0.25695   0.34929   Biso      1.000     O          -0.540052           
         O6        1.0000    0.64818   0.74678   0.97510   Biso      1.000     O          -0.52488  
         O7        1.0000    0.14222   0.57182   0.08004   Biso      1.000     O          -0.570836           
         O8        1.0000    0.14187   0.68967   0.23638   Biso      1.000     O          -0.573233           
         O9        1.0000    0.25322   0.35182   0.52490   Biso      1.000     O          -0.524144           
         O10       1.0000    0.59420   0.57710   0.29669   Biso      1.000     O          -0.532106           
         O11       1.0000    0.57710   0.59420   0.79669   Biso      1.000     O          -0.532309           
         O12       1.0000    0.85778   0.42818   0.91996   Biso      1.000     O          -0.570018           
         O13       1.0000    0.46245   0.74305   0.65071   Biso      1.000     O          -0.539855           
         O14       1.0000    0.85813   0.31033   0.76362   Biso      1.000     O          -0.572859           
         O15       1.0000    0.36937   0.58077   0.43965   Biso      1.000     O          -1.044685           
         O16       1.0000    0.35182   0.25322   0.02490   Biso      1.000     O          -0.52434  
         O17       1.0000    0.40580   0.42290   0.70331   Biso      1.000     O          -0.532505           
         O18       1.0000    0.58077   0.36937   0.93965   Biso      1.000     O          -1.044799           
         O19       1.0000    0.25695   0.53755   0.84929   Biso      1.000     O          -0.539407           
         O20       1.0000    0.68967   0.14187   0.73638   Biso      1.000     O          -0.572592           
         O21       1.0000    0.57182   0.14222   0.58004   Biso      1.000     O          -0.57084  
         O22       1.0000    0.74678   0.64818   0.47510   Biso      1.000     O          -0.523886           
         O23       1.0000    0.63063   0.41923   0.56035   Biso      1.000     O          -1.044341           
         O24       1.0000    0.42290   0.40580   0.20331   Biso      1.000     O          -0.532156 