
##########################################################################
#               Crystallographic Information Format file
#               Produced by PyCifRW module
#
#  This is a CIF file.  CIF has been adopted by the International
#  Union of Crystallography as the standard for data archiving and
#  transmission.
#
#  For information on this file format, follow the CIF links at
#  http://www.iucr.org
##########################################################################

data_image0

_cell_length_a                          14.344
_cell_length_b                          14.344
_cell_length_c                          15.47
_cell_angle_alpha                       90
_cell_angle_beta                        90
_cell_angle_gamma                       120
_symmetry_space_group_name_H-M          'P 1'
_symmetry_int_tables_number             1
loop_
  _symmetry_equiv_pos_as_xyz
         'x, y, z' 
loop_
  _atom_site_label
  _atom_site_occupancy
  _atom_site_fract_x
  _atom_site_fract_y
  _atom_site_fract_z
  _atom_site_thermal_displace_type
  _atom_site_B_iso_or_equiv
  _atom_site_type_symbol
  _atom_site_charge
         C1        1.0000    0.14800   0.73900   0.30900   Biso      1.000     C          0.010318  
         C2        1.0000    0.51300   0.64800   0.86300   Biso      1.000     C          0.595871  
         C3        1.0000    0.26100   0.85200   0.80900   Biso      1.000     C          0.025383000000000003          
         C4        1.0000    0.73900   0.59100   0.30900   Biso      1.000     C          0.015602000000000001          
         C5        1.0000    0.64800   0.51300   0.36300   Biso      1.000     C          0.595999  
         C6        1.0000    0.85200   0.26100   0.30900   Biso      1.000     C          0.010259  
         C7        1.0000    0.86500   0.35200   0.36300   Biso      1.000     C          0.596561  
         C8        1.0000    0.40900   0.14800   0.30900   Biso      1.000     C          0.014500999999999998          
         C9        1.0000    0.48700   0.13500   0.36300   Biso      1.000     C          0.59628   
         C10       1.0000    0.26100   0.40900   0.30900   Biso      1.000     C          0.01565   
         C11       1.0000    0.35200   0.48700   0.36300   Biso      1.000     C          0.595975  
         C12       1.0000    0.13500   0.64800   0.36300   Biso      1.000     C          0.596551  
         C13       1.0000    0.59100   0.85200   0.30900   Biso      1.000     C          0.014512  
         C14       1.0000    0.51300   0.86500   0.36300   Biso      1.000     C          0.596272  
         C15       1.0000    0.14800   0.40900   0.19100   Biso      1.000     C          0.015759  
         C16       1.0000    0.13500   0.48700   0.13700   Biso      1.000     C          0.595891  
         C17       1.0000    0.59100   0.73900   0.19100   Biso      1.000     C          0.016158000000000002          
         C18       1.0000    0.51300   0.64800   0.13700   Biso      1.000     C          0.5959220000000001  
         C19       1.0000    0.26100   0.85200   0.19100   Biso      1.000     C          0.025359  
         C20       1.0000    0.35200   0.86500   0.13700   Biso      1.000     C          0.591295  
         C21       1.0000    0.85200   0.59100   0.19100   Biso      1.000     C          0.015772  
         C22       1.0000    0.86500   0.51300   0.13700   Biso      1.000     C          0.595884  
         C23       1.0000    0.40900   0.26100   0.19100   Biso      1.000     C          0.016148  
         C24       1.0000    0.48700   0.35200   0.13700   Biso      1.000     C          0.595931  
         C25       1.0000    0.73900   0.14800   0.19100   Biso      1.000     C          0.02546   
         C26       1.0000    0.64800   0.13500   0.13700   Biso      1.000     C          0.591266  
         C27       1.0000    0.59100   0.73900   0.80900   Biso      1.000     C          0.016271  
         C28       1.0000    0.13500   0.48700   0.86300   Biso      1.000     C          0.595817  
         C29       1.0000    0.35200   0.86500   0.86300   Biso      1.000     C          0.591287  
         C30       1.0000    0.64800   0.13500   0.86300   Biso      1.000     C          0.591278  
         C31       1.0000    0.14800   0.40900   0.80900   Biso      1.000     C          0.016004  
         C32       1.0000    0.35200   0.48700   0.63700   Biso      1.000     C          0.5959899999999999  
         C33       1.0000    0.14800   0.73900   0.69100   Biso      1.000     C          0.010253  
         C34       1.0000    0.13500   0.64800   0.63700   Biso      1.000     C          0.596565  
         C35       1.0000    0.59100   0.85200   0.69100   Biso      1.000     C          0.014594999999999999          
         C36       1.0000    0.51300   0.86500   0.63700   Biso      1.000     C          0.596234  
         C37       1.0000    0.73900   0.59100   0.69100   Biso      1.000     C          0.015518  
         C38       1.0000    0.64800   0.51300   0.63700   Biso      1.000     C          0.595992  
         C39       1.0000    0.85200   0.26100   0.69100   Biso      1.000     C          0.010289  
         C40       1.0000    0.26100   0.40900   0.69100   Biso      1.000     C          0.015506  
         C41       1.0000    0.40900   0.14800   0.69100   Biso      1.000     C          0.014569  
         C42       1.0000    0.48700   0.13500   0.63700   Biso      1.000     C          0.596245  
         C43       1.0000    0.85200   0.59100   0.80900   Biso      1.000     C          0.015999  
         C44       1.0000    0.86500   0.51300   0.86300   Biso      1.000     C          0.595816  
         C45       1.0000    0.86500   0.35200   0.63700   Biso      1.000     C          0.596546  
         C46       1.0000    0.40900   0.26100   0.80900   Biso      1.000     C          0.016269  
         C47       1.0000    0.48700   0.35200   0.86300   Biso      1.000     C          0.595879  
         C48       1.0000    0.73900   0.14800   0.80900   Biso      1.000     C          0.025402  
         Cu1       1.0000    0.50000   0.50000   0.50000   Biso      1.000     Cu          0.9925700000000001  
         Cu2       1.0000    0.50000   0.00000   0.50000   Biso      1.000     Cu          0.992603  
         Cu3       1.0000    0.00000   0.50000   0.00000   Biso      1.000     Cu          0.9927010000000001  
         Cu4       1.0000    0.00000   0.50000   0.50000   Biso      1.000     Cu          0.988441  
         Cu5       1.0000    0.50000   0.00000   0.00000   Biso      1.000     Cu          0.985397  
         Cu6       1.0000    0.50000   0.50000   0.00000   Biso      1.000     Cu          0.99267   
         O1        1.0000    0.80370   0.41770   0.14570   Biso      1.000     O          -0.478784           
         O2        1.0000    0.05440   0.61100   0.41100   Biso      1.000     O          -0.515318           
         O3        1.0000    0.19630   0.61400   0.35430   Biso      1.000     O          -0.479662           
         O4        1.0000    0.38900   0.44340   0.41100   Biso      1.000     O          -0.516304           
         O5        1.0000    0.38600   0.58230   0.35430   Biso      1.000     O          -0.47881599999999996          
         O6        1.0000    0.41770   0.80370   0.35430   Biso      1.000     O          -0.47898100000000005          
         O7        1.0000    0.55660   0.94560   0.41100   Biso      1.000     O          -0.516265           
         O8        1.0000    0.19630   0.58230   0.14570   Biso      1.000     O          -0.47878999999999994          
         O9        1.0000    0.05440   0.44340   0.08900   Biso      1.000     O          -0.516583           
         O10       1.0000    0.41770   0.61400   0.14570   Biso      1.000     O          -0.478505           
         O11       1.0000    0.55660   0.61100   0.08900   Biso      1.000     O          -0.5165029999999999           
         O12       1.0000    0.38600   0.80370   0.14570   Biso      1.000     O          -0.476774           
         O13       1.0000    0.38900   0.94560   0.08900   Biso      1.000     O          -0.517508           
         O14       1.0000    0.94560   0.55660   0.08900   Biso      1.000     O          -0.5165850000000001           
         O15       1.0000    0.38600   0.58230   0.64570   Biso      1.000     O          -0.47888800000000004          
         O16       1.0000    0.44340   0.38900   0.08900   Biso      1.000     O          -0.516502           
         O17       1.0000    0.61400   0.19630   0.14570   Biso      1.000     O          -0.47674799999999995          
         O18       1.0000    0.61100   0.05440   0.08900   Biso      1.000     O          -0.517517           
         O19       1.0000    0.23620   0.47240   0.75000   Biso      1.000     O          -0.12036300000000001          
         O20       1.0000    0.23620   0.76380   0.75000   Biso      1.000     O          -0.11957000000000001          
         O21       1.0000    0.52760   0.76380   0.75000   Biso      1.000     O          -0.120511           
         O22       1.0000    0.76380   0.52760   0.75000   Biso      1.000     O          -0.12036300000000001          
         O23       1.0000    0.76380   0.23620   0.75000   Biso      1.000     O          -0.11958599999999998          
         O24       1.0000    0.47240   0.23620   0.75000   Biso      1.000     O          -0.120497           
         O25       1.0000    0.76380   0.52760   0.25000   Biso      1.000     O          -0.12031900000000001          
         O26       1.0000    0.44340   0.05440   0.41100   Biso      1.000     O          -0.516262           
         O27       1.0000    0.76380   0.23620   0.25000   Biso      1.000     O          -0.119585           
         O28       1.0000    0.47240   0.23620   0.25000   Biso      1.000     O          -0.12044500000000001          
         O29       1.0000    0.23620   0.47240   0.25000   Biso      1.000     O          -0.12032799999999999          
         O30       1.0000    0.58230   0.38600   0.14570   Biso      1.000     O          -0.478504           
         O31       1.0000    0.58230   0.19630   0.35430   Biso      1.000     O          -0.47898  
         O32       1.0000    0.52760   0.76380   0.25000   Biso      1.000     O          -0.120458           
         O33       1.0000    0.80370   0.38600   0.35430   Biso      1.000     O          -0.47968999999999995          
         O34       1.0000    0.23620   0.76380   0.25000   Biso      1.000     O          -0.119572           
         O35       1.0000    0.38900   0.44340   0.58900   Biso      1.000     O          -0.516283           
         O36       1.0000    0.19630   0.61400   0.64570   Biso      1.000     O          -0.479682           
         O37       1.0000    0.05440   0.61100   0.58900   Biso      1.000     O          -0.515312           
         O38       1.0000    0.41770   0.80370   0.64570   Biso      1.000     O          -0.478988           
         O39       1.0000    0.55660   0.94560   0.58900   Biso      1.000     O          -0.516265           
         O40       1.0000    0.61400   0.41770   0.64570   Biso      1.000     O          -0.47888500000000006          
         O41       1.0000    0.61100   0.55660   0.58900   Biso      1.000     O          -0.516283           
         O42       1.0000    0.80370   0.38600   0.64570   Biso      1.000     O          -0.47968299999999997          
         O43       1.0000    0.94560   0.38900   0.58900   Biso      1.000     O          -0.515311           
         O44       1.0000    0.58230   0.19630   0.64570   Biso      1.000     O          -0.478993           
         O45       1.0000    0.94560   0.38900   0.41100   Biso      1.000     O          -0.515308           
         O46       1.0000    0.80370   0.41770   0.85430   Biso      1.000     O          -0.478732           
         O47       1.0000    0.44340   0.05440   0.58900   Biso      1.000     O          -0.516262           
         O48       1.0000    0.58230   0.38600   0.85430   Biso      1.000     O          -0.478498           
         O49       1.0000    0.61100   0.55660   0.41100   Biso      1.000     O          -0.516303           
         O50       1.0000    0.61400   0.41770   0.35430   Biso      1.000     O          -0.47882299999999994          
         O51       1.0000    0.38900   0.94560   0.91100   Biso      1.000     O          -0.517509           
         O52       1.0000    0.94560   0.55660   0.91100   Biso      1.000     O          -0.516605           
         O53       1.0000    0.55660   0.61100   0.91100   Biso      1.000     O          -0.516508           
         O54       1.0000    0.38600   0.80370   0.85430   Biso      1.000     O          -0.476771           
         O55       1.0000    0.05440   0.44340   0.91100   Biso      1.000     O          -0.516608           
         O56       1.0000    0.19630   0.58230   0.85430   Biso      1.000     O          -0.478728           
         O57       1.0000    0.61100   0.05440   0.91100   Biso      1.000     O          -0.517513           
         O58       1.0000    0.61400   0.19630   0.85430   Biso      1.000     O          -0.476768           
         O59       1.0000    0.44340   0.38900   0.91100   Biso      1.000     O          -0.516509           
         O60       1.0000    0.41770   0.61400   0.85430   Biso      1.000     O          -0.47850200000000004          
         Yb1       1.0000    0.33333   0.66666   0.25000   Biso      1.000     Yb          1.174597  
         Yb2       1.0000    0.66667   0.33334   0.25000   Biso      1.000     Yb          1.174599  
         Yb3       1.0000    0.66667   0.33334   0.75000   Biso      1.000     Yb          1.174607  
         Yb4       1.0000    0.33333   0.66666   0.75000   Biso      1.000     Yb          1.174608 