
##########################################################################
#               Crystallographic Information Format file
#               Produced by PyCifRW module
#
#  This is a CIF file.  CIF has been adopted by the International
#  Union of Crystallography as the standard for data archiving and
#  transmission.
#
#  For information on this file format, follow the CIF links at
#  http://www.iucr.org
##########################################################################

data_image0

_cell_length_a                          5.954
_cell_length_b                          13.521
_cell_length_c                          13.942
_cell_angle_alpha                       95.02
_cell_angle_beta                        94.33
_cell_angle_gamma                       99.72
_symmetry_space_group_name_H-M          'P 1'
_symmetry_int_tables_number             1
loop_
  _symmetry_equiv_pos_as_xyz
         'x, y, z' 
loop_
  _atom_site_label
  _atom_site_occupancy
  _atom_site_fract_x
  _atom_site_fract_y
  _atom_site_fract_z
  _atom_site_thermal_displace_type
  _atom_site_B_iso_or_equiv
  _atom_site_type_symbol
  _atom_site_charge
         C1        1.0000    0.98410   0.30340   0.21100   Biso      1.000     C          -0.156063           
         C2        1.0000    0.12420   0.38940   0.77400   Biso      1.000     C          0.124152  
         C3        1.0000    0.23550   0.70730   0.83800   Biso      1.000     C          0.122831  
         C4        1.0000    0.02510   0.24580   0.28290   Biso      1.000     C          -0.090145           
         C5        1.0000    0.85210   0.17050   0.30830   Biso      1.000     C          -0.037663999999999996         
         C6        1.0000    0.63570   0.15970   0.26100   Biso      1.000     C          -0.07585700000000001          
         C7        1.0000    0.59210   0.22040   0.19010   Biso      1.000     C          -0.168972           
         C8        1.0000    0.27850   0.64230   0.91720   Biso      1.000     C          -0.168293           
         C9        1.0000    0.90090   0.10680   0.38490   Biso      1.000     C          0.609538  
         C10       1.0000    0.89590   0.51520   0.02180   Biso      1.000     C          -0.129472           
         C11       1.0000    0.27740   0.48200   0.82800   Biso      1.000     C          -0.166974           
         C12       1.0000    0.77400   0.31590   0.67670   Biso      1.000     C          -0.098812           
         C13       1.0000    0.70590   0.13750   0.60230   Biso      1.000     C          0.605059  
         C14       1.0000    0.90990   0.39760   0.73270   Biso      1.000     C          -0.154377           
         C15       1.0000    0.85020   0.22460   0.66360   Biso      1.000     C          -0.033052           
         C16       1.0000    0.06060   0.21530   0.70750   Biso      1.000     C          -0.07950800000000001          
         C17       1.0000    0.76450   0.29270   0.16200   Biso      1.000     C          0.122831  
         C18       1.0000    0.01590   0.69660   0.78900   Biso      1.000     C          -0.156063           
         C19       1.0000    0.19750   0.29780   0.76130   Biso      1.000     C          -0.167803           
         C20       1.0000    0.40790   0.77960   0.80990   Biso      1.000     C          -0.168975           
         C21       1.0000    0.93940   0.78470   0.29250   Biso      1.000     C          -0.079511           
         C22       1.0000    0.72150   0.35770   0.08280   Biso      1.000     C          -0.168293           
         C23       1.0000    0.87580   0.61060   0.22600   Biso      1.000     C          0.124151  
         C24       1.0000    0.09010   0.60240   0.26730   Biso      1.000     C          -0.15437599999999999          
         C25       1.0000    0.14980   0.77540   0.33640   Biso      1.000     C          -0.033049           
         C26       1.0000    0.80250   0.70220   0.23870   Biso      1.000     C          -0.167803           
         C27       1.0000    0.09910   0.89320   0.61510   Biso      1.000     C          0.609538  
         C28       1.0000    0.29410   0.86250   0.39770   Biso      1.000     C          0.605059  
         C29       1.0000    0.36430   0.84030   0.73900   Biso      1.000     C          -0.07585499999999999          
         C30       1.0000    0.72260   0.51800   0.17200   Biso      1.000     C          -0.166974           
         C31       1.0000    0.14790   0.82950   0.69170   Biso      1.000     C          -0.037663           
         C32       1.0000    0.10410   0.48480   0.97820   Biso      1.000     C          -0.129472           
         C33       1.0000    0.97490   0.75420   0.71710   Biso      1.000     C          -0.090145           
         C34       1.0000    0.22600   0.68410   0.32330   Biso      1.000     C          -0.098813           
         H1        1.0000    0.85530   0.45940   0.74270   Biso      1.000     H          0.110654  
         H2        1.0000    0.62880   0.32260   0.64740   Biso      1.000     H          0.114255  
         H3        1.0000    0.89470   0.64830   0.80660   Biso      1.000     H          0.10476099999999999           
         H4        1.0000    0.34160   0.52700   0.78070   Biso      1.000     H          0.116481  
         H5        1.0000    0.40650   0.46080   0.86500   Biso      1.000     H          0.077625  
         H6        1.0000    0.22830   0.67120   0.97800   Biso      1.000     H          0.121897  
         H7        1.0000    0.48390   0.89010   0.72250   Biso      1.000     H          0.12110599999999999           
         H8        1.0000    0.44470   0.64220   0.92780   Biso      1.000     H          0.090085  
         H9        1.0000    0.82690   0.74380   0.68330   Biso      1.000     H          0.11367200000000001           
         H10       1.0000    0.55870   0.78710   0.84050   Biso      1.000     H          0.109359  
         H11       1.0000    0.76220   0.49890   0.97290   Biso      1.000     H          0.070522  
         H12       1.0000    0.23780   0.50110   0.02710   Biso      1.000     H          0.070522  
         H13       1.0000    0.11170   0.15240   0.70080   Biso      1.000     H          0.119155  
         H14       1.0000    0.88830   0.84760   0.29920   Biso      1.000     H          0.119155  
         H15       1.0000    0.65640   0.70870   0.21030   Biso      1.000     H          0.108303  
         H16       1.0000    0.14470   0.54060   0.25730   Biso      1.000     H          0.110654  
         H17       1.0000    0.37120   0.67740   0.35260   Biso      1.000     H          0.114255  
         H18       1.0000    0.65840   0.47300   0.21930   Biso      1.000     H          0.116481  
         H19       1.0000    0.59350   0.53920   0.13500   Biso      1.000     H          0.077625  
         H20       1.0000    0.77170   0.32880   0.02200   Biso      1.000     H          0.121897  
         H21       1.0000    0.34360   0.29130   0.78970   Biso      1.000     H          0.108303  
         H22       1.0000    0.10530   0.35170   0.19340   Biso      1.000     H          0.10476099999999999           
         H23       1.0000    0.17310   0.25620   0.31670   Biso      1.000     H          0.11367100000000001           
         H24       1.0000    0.55530   0.35780   0.07220   Biso      1.000     H          0.090085  
         H25       1.0000    0.44130   0.21290   0.15950   Biso      1.000     H          0.109359  
         H26       1.0000    0.92510   0.58890   0.04030   Biso      1.000     H          0.09811900000000001           
         H27       1.0000    0.07490   0.41110   0.95970   Biso      1.000     H          0.09811900000000001           
         H28       1.0000    0.51610   0.10990   0.27750   Biso      1.000     H          0.12110599999999999           
         N1        1.0000    0.15510   0.53710   0.89350   Biso      1.000     N          -0.115717           
         N2        1.0000    0.84490   0.46290   0.10650   Biso      1.000     N          -0.115717           
         O1        1.0000    0.07710   0.13750   0.44360   Biso      1.000     O          -0.545384           
         O2        1.0000    0.76810   0.02180   0.38680   Biso      1.000     O          -0.5757760000000001           
         O3        1.0000    0.75620   0.05070   0.60610   Biso      1.000     O          -0.5732189999999999           
         O4        1.0000    0.53920   0.15570   0.54800   Biso      1.000     O          -0.542292           
         O5        1.0000    0.46080   0.84430   0.45200   Biso      1.000     O          -0.542292           
         O6        1.0000    0.92290   0.86250   0.55640   Biso      1.000     O          -0.545384           
         O7        1.0000    0.23190   0.97820   0.61320   Biso      1.000     O          -0.5757760000000001           
         O8        1.0000    0.24380   0.94930   0.39390   Biso      1.000     O          -0.5732189999999999           
         Zn1       1.0000    0.72610   0.94485   0.49844   Biso      1.000     Zn          0.941809  
         Zn2       1.0000    0.27390   0.05515   0.50156   Biso      1.000     Zn          0.941808 