
##########################################################################
#               Crystallographic Information Format file
#               Produced by PyCifRW module
#
#  This is a CIF file.  CIF has been adopted by the International
#  Union of Crystallography as the standard for data archiving and
#  transmission.
#
#  For information on this file format, follow the CIF links at
#  http://www.iucr.org
##########################################################################

data_image0

_cell_length_a                          6.737
_cell_length_b                          7.122
_cell_length_c                          7.175
_cell_angle_alpha                       90
_cell_angle_beta                        90
_cell_angle_gamma                       90
_symmetry_space_group_name_H-M          'P 1'
_symmetry_int_tables_number             1
loop_
  _symmetry_equiv_pos_as_xyz
         'x, y, z' 
loop_
  _atom_site_label
  _atom_site_occupancy
  _atom_site_fract_x
  _atom_site_fract_y
  _atom_site_fract_z
  _atom_site_thermal_displace_type
  _atom_site_B_iso_or_equiv
  _atom_site_type_symbol
  _atom_site_charge
         C1        1.0000    0.50000   0.69630   0.30480   Biso      1.000     C          0.040282  
         C2        1.0000    0.50000   0.30370   0.69520   Biso      1.000     C          0.040282  
         C3        1.0000    0.89800   0.84080   0.00000   Biso      1.000     C          0.04929   
         C4        1.0000    0.50000   0.69630   0.69520   Biso      1.000     C          0.040281  
         C5        1.0000    0.50000   0.30370   0.30480   Biso      1.000     C          0.040281  
         C6        1.0000    0.89800   0.15920   0.00000   Biso      1.000     C          0.049291  
         C7        1.0000    0.10200   0.15920   0.00000   Biso      1.000     C          0.049304  
         C8        1.0000    0.10200   0.84080   0.00000   Biso      1.000     C          0.049304  
         Fe1       1.0000    0.50000   0.00000   0.00000   Biso      1.000     Fe          0.463421  
         H1        1.0000    0.82960   0.72420   0.00000   Biso      1.000     H          0.120984  
         H2        1.0000    0.82960   0.27580   0.00000   Biso      1.000     H          0.120983  
         H3        1.0000    0.17040   0.72420   0.00000   Biso      1.000     H          0.120983  
         H4        1.0000    0.17040   0.27580   0.00000   Biso      1.000     H          0.120982  
         N1        1.0000    0.20740   0.00000   0.00000   Biso      1.000     N          -0.061934           
         N2        1.0000    0.50000   0.80870   0.18990   Biso      1.000     N          -0.30666  
         N3        1.0000    0.50000   0.19130   0.18990   Biso      1.000     N          -0.306659           
         N4        1.0000    0.50000   0.80870   0.81010   Biso      1.000     N          -0.306659           
         N5        1.0000    0.50000   0.19130   0.81010   Biso      1.000     N          -0.30666  
         N6        1.0000    0.79260   0.00000   0.00000   Biso      1.000     N          -0.061932           
         Pt1       1.0000    0.50000   0.50000   0.50000   Biso      1.000     Pt          0.044836 