
##########################################################################
#               Crystallographic Information Format file
#               Produced by PyCifRW module
#
#  This is a CIF file.  CIF has been adopted by the International
#  Union of Crystallography as the standard for data archiving and
#  transmission.
#
#  For information on this file format, follow the CIF links at
#  http://www.iucr.org
##########################################################################

data_image0

_cell_length_a                          10.4477
_cell_length_b                          11.4945
_cell_length_c                          12.9583
_cell_angle_alpha                       106.639
_cell_angle_beta                        90.322
_cell_angle_gamma                       93.194
_symmetry_space_group_name_H-M          'P 1'
_symmetry_int_tables_number             1
loop_
  _symmetry_equiv_pos_as_xyz
         'x, y, z' 
loop_
  _atom_site_label
  _atom_site_occupancy
  _atom_site_fract_x
  _atom_site_fract_y
  _atom_site_fract_z
  _atom_site_thermal_displace_type
  _atom_site_B_iso_or_equiv
  _atom_site_type_symbol
  _atom_site_charge
         C1        1.0000    0.38540   0.05900   0.52050   Biso      1.000     C          0.059685  
         C2        1.0000    0.44670   0.89160   0.01720   Biso      1.000     C          0.05873099999999999           
         C3        1.0000    0.94430   0.41000   0.40960   Biso      1.000     C          0.058792  
         C4        1.0000    0.10690   0.68400   0.68210   Biso      1.000     C          -0.12878900000000001          
         C5        1.0000    0.73400   0.88520   0.45730   Biso      1.000     C          -0.14257  
         C6        1.0000    0.05570   0.59000   0.59040   Biso      1.000     C          0.058793  
         C7        1.0000    0.61460   0.94100   0.47950   Biso      1.000     C          0.059685  
         C8        1.0000    0.55330   0.10840   0.98280   Biso      1.000     C          0.05873099999999999           
         C9        1.0000    0.50660   0.76840   0.83410   Biso      1.000     C          0.6297550000000001  
         C10       1.0000    0.48750   0.25200   0.49540   Biso      1.000     C          0.701803  
         C11       1.0000    0.73580   0.51100   0.43340   Biso      1.000     C          0.659453  
         C12       1.0000    0.50180   0.88670   0.91790   Biso      1.000     C          -0.108293           
         C13       1.0000    0.49310   0.12020   0.49520   Biso      1.000     C          -0.134635           
         C14       1.0000    0.87130   0.50680   0.46810   Biso      1.000     C          -0.130325           
         C15       1.0000    0.55260   0.99470   0.89880   Biso      1.000     C          0.057244  
         C16       1.0000    0.60870   0.06380   0.47370   Biso      1.000     C          0.05839199999999999           
         C17       1.0000    0.92460   0.59580   0.55720   Biso      1.000     C          0.051071  
         C18       1.0000    0.60370   0.99640   0.79560   Biso      1.000     C          -0.137625           
         C19       1.0000    0.72240   0.12400   0.44910   Biso      1.000     C          -0.148524           
         C20       1.0000    0.85320   0.69360   0.61660   Biso      1.000     C          -0.188423           
         C21       1.0000    0.65270   0.09970   0.77810   Biso      1.000     C          -0.082789           
         C22       1.0000    0.83240   0.06750   0.42980   Biso      1.000     C          -0.089005           
         C23       1.0000    0.90500   0.78030   0.70370   Biso      1.000     C          -0.059690999999999994         
         C24       1.0000    0.65510   0.21150   0.86050   Biso      1.000     C          -0.09991799999999999          
         C25       1.0000    0.83810   0.94470   0.43180   Biso      1.000     C          -0.088628           
         C26       1.0000    0.03530   0.77490   0.73670   Biso      1.000     C          -0.075895           
         C27       1.0000    0.89310   0.31600   0.31790   Biso      1.000     C          -0.128788           
         C28       1.0000    0.26600   0.11480   0.54270   Biso      1.000     C          -0.14257  
         C29       1.0000    0.60790   0.21640   0.96000   Biso      1.000     C          -0.154502           
         C30       1.0000    0.27760   0.87600   0.55090   Biso      1.000     C          -0.148524           
         C31       1.0000    0.39630   0.00360   0.20440   Biso      1.000     C          -0.137624           
         C32       1.0000    0.39210   0.78360   0.04000   Biso      1.000     C          -0.15450899999999998          
         C33       1.0000    0.44740   0.00530   0.10120   Biso      1.000     C          0.057245000000000004          
         C34       1.0000    0.14680   0.30640   0.38340   Biso      1.000     C          -0.188423           
         C35       1.0000    0.34730   0.90030   0.22190   Biso      1.000     C          -0.08279  
         C36       1.0000    0.12870   0.49320   0.53190   Biso      1.000     C          -0.130325           
         C37       1.0000    0.16760   0.93250   0.57020   Biso      1.000     C          -0.089005           
         C38       1.0000    0.09500   0.21970   0.29630   Biso      1.000     C          -0.05969  
         C39       1.0000    0.07540   0.40420   0.44280   Biso      1.000     C          0.051071  
         C40       1.0000    0.50690   0.87980   0.50480   Biso      1.000     C          -0.134635           
         C41       1.0000    0.49820   0.11330   0.08210   Biso      1.000     C          -0.108293           
         C42       1.0000    0.16190   0.05530   0.56820   Biso      1.000     C          -0.088628           
         C43       1.0000    0.26420   0.48900   0.56660   Biso      1.000     C          0.659453  
         C44       1.0000    0.51250   0.74800   0.50460   Biso      1.000     C          0.701803  
         C45       1.0000    0.96470   0.22510   0.26330   Biso      1.000     C          -0.075895           
         C46       1.0000    0.49340   0.23160   0.16590   Biso      1.000     C          0.6297550000000001  
         C47       1.0000    0.34490   0.78850   0.13950   Biso      1.000     C          -0.099911           
         C48       1.0000    0.39130   0.93620   0.52630   Biso      1.000     C          0.05839199999999999           
         H1        1.0000    0.90580   0.10890   0.41500   Biso      1.000     H          0.09949   
         H2        1.0000    0.85610   0.84310   0.74180   Biso      1.000     H          0.117302  
         H3        1.0000    0.68530   0.09750   0.71100   Biso      1.000     H          0.105027  
         H4        1.0000    0.68900   0.28210   0.84700   Biso      1.000     H          0.100609  
         H5        1.0000    0.76890   0.69840   0.59540   Biso      1.000     H          0.10013899999999999           
         H6        1.0000    0.91400   0.90540   0.41540   Biso      1.000     H          0.10993   
         H7        1.0000    0.72030   0.20390   0.44640   Biso      1.000     H          0.11298299999999999           
         H8        1.0000    0.38900   0.70970   0.98640   Biso      1.000     H          0.11231600000000001           
         H9        1.0000    0.39730   0.07570   0.26000   Biso      1.000     H          0.1161    
         H10       1.0000    0.27970   0.79610   0.55360   Biso      1.000     H          0.11298299999999999           
         H11       1.0000    0.23110   0.30160   0.40460   Biso      1.000     H          0.10013899999999999           
         H12       1.0000    0.31470   0.90250   0.28900   Biso      1.000     H          0.105027  
         H13       1.0000    0.09420   0.89110   0.58500   Biso      1.000     H          0.09949   
         H14       1.0000    0.14390   0.15690   0.25820   Biso      1.000     H          0.117302  
         H15       1.0000    0.61100   0.29030   0.01360   Biso      1.000     H          0.11231600000000001           
         H16       1.0000    0.31100   0.71790   0.15300   Biso      1.000     H          0.100608  
         H17       1.0000    0.74000   0.80590   0.46060   Biso      1.000     H          0.112626  
         H18       1.0000    0.07070   0.83440   0.79610   Biso      1.000     H          0.11881900000000001           
         H19       1.0000    0.08600   0.09460   0.58460   Biso      1.000     H          0.10993   
         H20       1.0000    0.80870   0.31770   0.29560   Biso      1.000     H          0.124169  
         H21       1.0000    0.26000   0.19410   0.53940   Biso      1.000     H          0.112626  
         H22       1.0000    0.92930   0.16560   0.20390   Biso      1.000     H          0.11881800000000001           
         H23       1.0000    0.60270   0.92430   0.74000   Biso      1.000     H          0.1161    
         H24       1.0000    0.19130   0.68230   0.70440   Biso      1.000     H          0.124169  
         O1        1.0000    0.28470   0.47430   0.65600   Biso      1.000     O          -0.572833           
         O2        1.0000    0.51030   0.32840   0.58560   Biso      1.000     O          -0.7006600000000001           
         O3        1.0000    0.40490   0.71620   0.78620   Biso      1.000     O          -0.623189           
         O4        1.0000    0.61460   0.72250   0.81540   Biso      1.000     O          -0.67684  
         O5        1.0000    0.64540   0.49010   0.49230   Biso      1.000     O          -0.769131           
         O6        1.0000    0.71530   0.52570   0.34400   Biso      1.000     O          -0.572833           
         O7        1.0000    0.46120   0.27390   0.40960   Biso      1.000     O          -0.62971  
         O8        1.0000    0.53880   0.72610   0.59040   Biso      1.000     O          -0.62971  
         O9        1.0000    0.59510   0.28380   0.21380   Biso      1.000     O          -0.623189           
         O10       1.0000    0.35460   0.50990   0.50770   Biso      1.000     O          -0.769131           
         O11       1.0000    0.48970   0.67160   0.41440   Biso      1.000     O          -0.7006600000000001           
         O12       1.0000    0.38540   0.27750   0.18460   Biso      1.000     O          -0.67684  
         Pr1       1.0000    0.52576   0.54614   0.66451   Biso      1.000     Pr          2.0775360000000003  
         Pr2       1.0000    0.47424   0.45386   0.33549   Biso      1.000     Pr          2.0775360000000003 