
##########################################################################
#               Crystallographic Information Format file
#               Produced by PyCifRW module
#
#  This is a CIF file.  CIF has been adopted by the International
#  Union of Crystallography as the standard for data archiving and
#  transmission.
#
#  For information on this file format, follow the CIF links at
#  http://www.iucr.org
##########################################################################

data_image0

_cell_length_a                          10.468
_cell_length_b                          11.356
_cell_length_c                          13.089
_cell_angle_alpha                       107.539
_cell_angle_beta                        90.086
_cell_angle_gamma                       92.356
_symmetry_space_group_name_H-M          'P 1'
_symmetry_int_tables_number             1
loop_
  _symmetry_equiv_pos_as_xyz
         'x, y, z' 
loop_
  _atom_site_label
  _atom_site_occupancy
  _atom_site_fract_x
  _atom_site_fract_y
  _atom_site_fract_z
  _atom_site_thermal_displace_type
  _atom_site_B_iso_or_equiv
  _atom_site_type_symbol
  _atom_site_charge
         C1        1.0000    0.38580   0.06420   0.52110   Biso      1.000     C          0.061265  
         C2        1.0000    0.44770   0.88990   0.01420   Biso      1.000     C          0.054613999999999996          
         C3        1.0000    0.94640   0.40790   0.41210   Biso      1.000     C          0.062437  
         C4        1.0000    0.10580   0.68890   0.67740   Biso      1.000     C          -0.13305  
         C5        1.0000    0.73290   0.87690   0.45770   Biso      1.000     C          -0.142228           
         C6        1.0000    0.05360   0.59210   0.58790   Biso      1.000     C          0.062437  
         C7        1.0000    0.61420   0.93580   0.47890   Biso      1.000     C          0.061265  
         C8        1.0000    0.55230   0.11010   0.98580   Biso      1.000     C          0.054613  
         C9        1.0000    0.50110   0.76670   0.82960   Biso      1.000     C          0.644173  
         C10       1.0000    0.49160   0.25440   0.49360   Biso      1.000     C          0.707692  
         C11       1.0000    0.73290   0.50870   0.43940   Biso      1.000     C          0.668401  
         C12       1.0000    0.49930   0.88460   0.91320   Biso      1.000     C          -0.105099           
         C13       1.0000    0.49380   0.11990   0.49330   Biso      1.000     C          -0.13018  
         C14       1.0000    0.87050   0.50380   0.47190   Biso      1.000     C          -0.132404           
         C15       1.0000    0.54800   0.99450   0.89830   Biso      1.000     C          0.054672000000000005          
         C16       1.0000    0.60860   0.06020   0.47440   Biso      1.000     C          0.054534000000000006          
         C17       1.0000    0.92320   0.59720   0.55880   Biso      1.000     C          0.053552999999999996          
         C18       1.0000    0.59680   0.99930   0.79430   Biso      1.000     C          -0.133074           
         C19       1.0000    0.72370   0.11550   0.44730   Biso      1.000     C          -0.145938           
         C20       1.0000    0.85170   0.69690   0.61890   Biso      1.000     C          -0.179068           
         C21       1.0000    0.65100   0.10200   0.78120   Biso      1.000     C          -0.087421           
         C22       1.0000    0.83420   0.05810   0.43140   Biso      1.000     C          -0.08734600000000001          
         C23       1.0000    0.90440   0.78700   0.70370   Biso      1.000     C          -0.060829999999999995         
         C24       1.0000    0.65730   0.21540   0.86640   Biso      1.000     C          -0.10001499999999999          
         C25       1.0000    0.83790   0.93660   0.43560   Biso      1.000     C          -0.08342999999999999          
         C26       1.0000    0.03300   0.78160   0.73340   Biso      1.000     C          -0.075054           
         C27       1.0000    0.89420   0.31110   0.32260   Biso      1.000     C          -0.133049           
         C28       1.0000    0.26710   0.12310   0.54230   Biso      1.000     C          -0.142229           
         C29       1.0000    0.60860   0.21780   0.96480   Biso      1.000     C          -0.156038           
         C30       1.0000    0.27630   0.88450   0.55270   Biso      1.000     C          -0.145938           
         C31       1.0000    0.40320   0.00070   0.20570   Biso      1.000     C          -0.133074           
         C32       1.0000    0.39140   0.78220   0.03520   Biso      1.000     C          -0.156041           
         C33       1.0000    0.45200   0.00550   0.10170   Biso      1.000     C          0.054672000000000005          
         C34       1.0000    0.14830   0.30310   0.38110   Biso      1.000     C          -0.179068           
         C35       1.0000    0.34900   0.89800   0.21880   Biso      1.000     C          -0.087421           
         C36       1.0000    0.12950   0.49620   0.52810   Biso      1.000     C          -0.132405           
         C37       1.0000    0.16580   0.94190   0.56860   Biso      1.000     C          -0.08734600000000001          
         C38       1.0000    0.09560   0.21300   0.29630   Biso      1.000     C          -0.060829999999999995         
         C39       1.0000    0.07680   0.40280   0.44120   Biso      1.000     C          0.053552999999999996          
         C40       1.0000    0.50620   0.88010   0.50670   Biso      1.000     C          -0.13018  
         C41       1.0000    0.50070   0.11540   0.08680   Biso      1.000     C          -0.105099           
         C42       1.0000    0.16210   0.06340   0.56440   Biso      1.000     C          -0.08342999999999999          
         C43       1.0000    0.26710   0.49130   0.56060   Biso      1.000     C          0.668401  
         C44       1.0000    0.50840   0.74560   0.50640   Biso      1.000     C          0.707692  
         C45       1.0000    0.96700   0.21840   0.26660   Biso      1.000     C          -0.075054           
         C46       1.0000    0.49890   0.23330   0.17040   Biso      1.000     C          0.644173  
         C47       1.0000    0.34270   0.78460   0.13360   Biso      1.000     C          -0.100012           
         C48       1.0000    0.39140   0.93980   0.52560   Biso      1.000     C          0.054533000000000005          
         H1        1.0000    0.90820   0.09860   0.41760   Biso      1.000     H          0.101701  
         H2        1.0000    0.85580   0.85210   0.74190   Biso      1.000     H          0.11619700000000001           
         H3        1.0000    0.68550   0.09960   0.71520   Biso      1.000     H          0.106273  
         H4        1.0000    0.69370   0.28680   0.85570   Biso      1.000     H          0.105616  
         H5        1.0000    0.76660   0.70100   0.60000   Biso      1.000     H          0.10105499999999999           
         H6        1.0000    0.91450   0.89630   0.42280   Biso      1.000     H          0.106327  
         H7        1.0000    0.72160   0.19460   0.44040   Biso      1.000     H          0.10846800000000001           
         H8        1.0000    0.38750   0.70780   0.98010   Biso      1.000     H          0.11140699999999999           
         H9        1.0000    0.41040   0.07160   0.26430   Biso      1.000     H          0.115574  
         H10       1.0000    0.27840   0.80540   0.55960   Biso      1.000     H          0.10846800000000001           
         H11       1.0000    0.23340   0.29900   0.40000   Biso      1.000     H          0.10105499999999999           
         H12       1.0000    0.31450   0.90040   0.28480   Biso      1.000     H          0.106273  
         H13       1.0000    0.09180   0.90140   0.58240   Biso      1.000     H          0.101701  
         H14       1.0000    0.14420   0.14790   0.25810   Biso      1.000     H          0.11619600000000001           
         H15       1.0000    0.61250   0.29220   0.01990   Biso      1.000     H          0.11140699999999999           
         H16       1.0000    0.30630   0.71320   0.14430   Biso      1.000     H          0.105616  
         H17       1.0000    0.73800   0.79580   0.45920   Biso      1.000     H          0.112703  
         H18       1.0000    0.06820   0.84250   0.79240   Biso      1.000     H          0.116119  
         H19       1.0000    0.08550   0.10370   0.57720   Biso      1.000     H          0.106327  
         H20       1.0000    0.80890   0.31190   0.30280   Biso      1.000     H          0.12459100000000001           
         H21       1.0000    0.26200   0.20420   0.54080   Biso      1.000     H          0.112703  
         H22       1.0000    0.93180   0.15750   0.20760   Biso      1.000     H          0.116119  
         H23       1.0000    0.58960   0.92840   0.73570   Biso      1.000     H          0.115574  
         H24       1.0000    0.19110   0.68810   0.69720   Biso      1.000     H          0.12459100000000001           
         O1        1.0000    0.28850   0.48310   0.65200   Biso      1.000     O          -0.591252           
         O2        1.0000    0.50690   0.33300   0.58420   Biso      1.000     O          -0.70796  
         O3        1.0000    0.40180   0.71720   0.78280   Biso      1.000     O          -0.611413           
         O4        1.0000    0.60890   0.71860   0.80480   Biso      1.000     O          -0.6960109999999999           
         O5        1.0000    0.64300   0.49480   0.49820   Biso      1.000     O          -0.767784           
         O6        1.0000    0.71150   0.51690   0.34800   Biso      1.000     O          -0.591252           
         O7        1.0000    0.47260   0.27560   0.40750   Biso      1.000     O          -0.6283310000000001           
         O8        1.0000    0.52740   0.72440   0.59250   Biso      1.000     O          -0.6283310000000001           
         O9        1.0000    0.59820   0.28280   0.21720   Biso      1.000     O          -0.611413           
         O10       1.0000    0.35700   0.50520   0.50180   Biso      1.000     O          -0.767784           
         O11       1.0000    0.49310   0.66700   0.41580   Biso      1.000     O          -0.707961           
         O12       1.0000    0.39110   0.28140   0.19520   Biso      1.000     O          -0.6960109999999999           
         Tb1       1.0000    0.51934   0.54661   0.66054   Biso      1.000     Tb          2.066555  
         Tb2       1.0000    0.48066   0.45339   0.33946   Biso      1.000     Tb          2.066555 