
##########################################################################
#               Crystallographic Information Format file
#               Produced by PyCifRW module
#
#  This is a CIF file.  CIF has been adopted by the International
#  Union of Crystallography as the standard for data archiving and
#  transmission.
#
#  For information on this file format, follow the CIF links at
#  http://www.iucr.org
##########################################################################

data_image0

_cell_length_a                          17.3884
_cell_length_b                          17.3884
_cell_length_c                          17.3884
_cell_angle_alpha                       65.3544
_cell_angle_beta                        65.3544
_cell_angle_gamma                       65.3544
_symmetry_space_group_name_H-M          'P 1'
_symmetry_int_tables_number             1
loop_
  _symmetry_equiv_pos_as_xyz
         'x, y, z' 
loop_
  _atom_site_label
  _atom_site_occupancy
  _atom_site_fract_x
  _atom_site_fract_y
  _atom_site_fract_z
  _atom_site_thermal_displace_type
  _atom_site_B_iso_or_equiv
  _atom_site_type_symbol
  _atom_site_charge
         C1        1.0000    0.83642   0.56902   0.02102   Biso      1.000     C          0.602873  
         C2        1.0000    0.83642   0.02102   0.56902   Biso      1.000     C          0.602876  
         C3        1.0000    0.25945   0.38825   0.97525   Biso      1.000     C          -0.008656           
         C4        1.0000    0.30607   0.43517   0.97867   Biso      1.000     C          -0.138376           
         C5        1.0000    0.16358   0.43098   0.97898   Biso      1.000     C          0.602873  
         C6        1.0000    0.38825   0.97525   0.25945   Biso      1.000     C          -0.008654           
         C7        1.0000    0.43517   0.97867   0.30607   Biso      1.000     C          -0.138373           
         C8        1.0000    0.43098   0.97898   0.16358   Biso      1.000     C          0.6028680000000001  
         C9        1.0000    0.97525   0.25945   0.38825   Biso      1.000     C          -0.008664           
         C10       1.0000    0.97867   0.30607   0.43517   Biso      1.000     C          -0.138378           
         C11       1.0000    0.97898   0.16358   0.43098   Biso      1.000     C          0.602884  
         C12       1.0000    0.38825   0.25945   0.97525   Biso      1.000     C          -0.008655           
         C13       1.0000    0.43517   0.30607   0.97867   Biso      1.000     C          -0.138375           
         C14       1.0000    0.69393   0.02133   0.56483   Biso      1.000     C          -0.138378           
         C15       1.0000    0.43098   0.16358   0.97898   Biso      1.000     C          0.6028680000000001  
         C16       1.0000    0.97867   0.43517   0.30607   Biso      1.000     C          -0.138375           
         C17       1.0000    0.97898   0.43098   0.16358   Biso      1.000     C          0.6028819999999999  
         C18       1.0000    0.25945   0.97525   0.38825   Biso      1.000     C          -0.008654           
         C19       1.0000    0.30607   0.97867   0.43517   Biso      1.000     C          -0.138379           
         C20       1.0000    0.16358   0.97898   0.43098   Biso      1.000     C          0.602876  
         C21       1.0000    0.74055   0.61175   0.02475   Biso      1.000     C          -0.008657           
         C22       1.0000    0.69393   0.56483   0.02133   Biso      1.000     C          -0.138374           
         C23       1.0000    0.56020   0.56020   0.01410   Biso      1.000     C          -0.07939500000000001          
         C24       1.0000    0.61175   0.02475   0.74055   Biso      1.000     C          -0.008654           
         C25       1.0000    0.56483   0.02133   0.69393   Biso      1.000     C          -0.138375           
         C26       1.0000    0.56902   0.02102   0.83642   Biso      1.000     C          0.6028680000000001  
         C27       1.0000    0.02475   0.74055   0.61175   Biso      1.000     C          -0.008665           
         C28       1.0000    0.97525   0.38825   0.25945   Biso      1.000     C          -0.008664           
         C29       1.0000    0.74055   0.02475   0.61175   Biso      1.000     C          -0.008655           
         C30       1.0000    0.02102   0.56902   0.83642   Biso      1.000     C          0.6028819999999999  
         C31       1.0000    0.02133   0.56483   0.69393   Biso      1.000     C          -0.138376           
         C32       1.0000    0.98035   0.39360   0.39360   Biso      1.000     C          0.150101  
         C33       1.0000    0.97393   0.30078   0.30078   Biso      1.000     C          -0.11819  
         C34       1.0000    0.99530   0.47740   0.47740   Biso      1.000     C          -0.035769           
         C35       1.0000    0.98590   0.43980   0.43980   Biso      1.000     C          -0.079295           
         C36       1.0000    0.39360   0.98035   0.39360   Biso      1.000     C          0.15010199999999999           
         C37       1.0000    0.30078   0.97393   0.30078   Biso      1.000     C          -0.118163           
         C38       1.0000    0.47740   0.99530   0.47740   Biso      1.000     C          -0.035756           
         C39       1.0000    0.43980   0.98590   0.43980   Biso      1.000     C          -0.07927999999999999          
         C40       1.0000    0.39360   0.39360   0.98035   Biso      1.000     C          0.15010199999999999           
         C41       1.0000    0.30078   0.30078   0.97393   Biso      1.000     C          -0.11816199999999999          
         C42       1.0000    0.47740   0.47740   0.99530   Biso      1.000     C          -0.035775           
         C43       1.0000    0.43980   0.43980   0.98590   Biso      1.000     C          -0.079275           
         C44       1.0000    0.60640   0.01965   0.60640   Biso      1.000     C          0.15010199999999999           
         C45       1.0000    0.69922   0.02607   0.69922   Biso      1.000     C          -0.118163           
         C46       1.0000    0.52260   0.00470   0.52260   Biso      1.000     C          -0.035756           
         C47       1.0000    0.56020   0.01410   0.56020   Biso      1.000     C          -0.079279           
         C48       1.0000    0.01965   0.60640   0.60640   Biso      1.000     C          0.1501    
         C49       1.0000    0.02607   0.69922   0.69922   Biso      1.000     C          -0.11818900000000002          
         C50       1.0000    0.00470   0.52260   0.52260   Biso      1.000     C          -0.035772000000000005         
         C51       1.0000    0.01410   0.56020   0.56020   Biso      1.000     C          -0.079295           
         C52       1.0000    0.60640   0.60640   0.01965   Biso      1.000     C          0.150115  
         C53       1.0000    0.69922   0.69922   0.02607   Biso      1.000     C          -0.11816199999999999          
         C54       1.0000    0.52260   0.52260   0.00470   Biso      1.000     C          -0.035637           
         C55       1.0000    0.61175   0.74055   0.02475   Biso      1.000     C          -0.008656           
         C56       1.0000    0.56483   0.69393   0.02133   Biso      1.000     C          -0.138372           
         C57       1.0000    0.56902   0.83642   0.02102   Biso      1.000     C          0.6028680000000001  
         C58       1.0000    0.02475   0.61175   0.74055   Biso      1.000     C          -0.008665           
         C59       1.0000    0.02133   0.69393   0.56483   Biso      1.000     C          -0.138377           
         C60       1.0000    0.02102   0.83642   0.56902   Biso      1.000     C          0.602885  
         Cu1       1.0000    0.57302   0.00388   0.00388   Biso      1.000     Cu          0.87575   
         Cu2       1.0000    0.00388   0.57302   0.00388   Biso      1.000     Cu          0.875822  
         Cu3       1.0000    0.00388   0.00388   0.57302   Biso      1.000     Cu          0.8758520000000001  
         Cu4       1.0000    0.99612   0.42698   0.99612   Biso      1.000     Cu          0.8758040000000001  
         Cu5       1.0000    0.42698   0.99612   0.99612   Biso      1.000     Cu          0.8757590000000001  
         Cu6       1.0000    0.99612   0.99612   0.42698   Biso      1.000     Cu          0.8758450000000001  
         H1        1.0000    0.97220   0.26950   0.26950   Biso      1.000     H          0.13711199999999998           
         H2        1.0000    0.50640   0.72100   0.02020   Biso      1.000     H          0.139461  
         H3        1.0000    0.72100   0.02020   0.50640   Biso      1.000     H          0.13946   
         H4        1.0000    0.27900   0.49360   0.97980   Biso      1.000     H          0.13946   
         H5        1.0000    0.49360   0.97980   0.27900   Biso      1.000     H          0.139459  
         H6        1.0000    0.97980   0.27900   0.49360   Biso      1.000     H          0.139461  
         H7        1.0000    0.02020   0.50640   0.72100   Biso      1.000     H          0.139454  
         H8        1.0000    0.97980   0.49360   0.27900   Biso      1.000     H          0.139457  
         H9        1.0000    0.49360   0.27900   0.97980   Biso      1.000     H          0.139461  
         H10       1.0000    0.26950   0.26950   0.97220   Biso      1.000     H          0.137104  
         H11       1.0000    0.73050   0.02780   0.73050   Biso      1.000     H          0.137106  
         H12       1.0000    0.02780   0.73050   0.73050   Biso      1.000     H          0.13711500000000001           
         H13       1.0000    0.73050   0.73050   0.02780   Biso      1.000     H          0.137106  
         H14       1.0000    0.26950   0.97220   0.26950   Biso      1.000     H          0.137107  
         H15       1.0000    0.50640   0.02020   0.72100   Biso      1.000     H          0.139463  
         H16       1.0000    0.72100   0.50640   0.02020   Biso      1.000     H          0.139457  
         H17       1.0000    0.27900   0.97980   0.49360   Biso      1.000     H          0.139462  
         H18       1.0000    0.02020   0.72100   0.50640   Biso      1.000     H          0.139455  
         O1        1.0000    0.38518   0.12384   0.97866   Biso      1.000     O          -0.525569           
         O2        1.0000    0.49165   0.01558   0.86961   Biso      1.000     O          -0.534615           
         O3        1.0000    0.61482   0.02134   0.87616   Biso      1.000     O          -0.52557  
         O4        1.0000    0.86961   0.49165   0.01558   Biso      1.000     O          -0.5346   
         O5        1.0000    0.87616   0.61482   0.02134   Biso      1.000     O          -0.525558           
         O6        1.0000    0.13039   0.98442   0.50835   Biso      1.000     O          -0.534609           
         O7        1.0000    0.12384   0.97866   0.38518   Biso      1.000     O          -0.525561           
         O8        1.0000    0.98442   0.50835   0.13039   Biso      1.000     O          -0.534702           
         O9        1.0000    0.97866   0.38518   0.12384   Biso      1.000     O          -0.525542           
         O10       1.0000    0.50835   0.13039   0.98442   Biso      1.000     O          -0.534616           
         O11       1.0000    0.98442   0.13039   0.50835   Biso      1.000     O          -0.534708           
         O12       1.0000    0.61482   0.87616   0.02134   Biso      1.000     O          -0.525569           
         O13       1.0000    0.50835   0.98442   0.13039   Biso      1.000     O          -0.534614           
         O14       1.0000    0.38518   0.97866   0.12384   Biso      1.000     O          -0.525569           
         O15       1.0000    0.13039   0.50835   0.98442   Biso      1.000     O          -0.5346029999999999           
         O16       1.0000    0.12384   0.38518   0.97866   Biso      1.000     O          -0.525554           
         O17       1.0000    0.86961   0.01558   0.49165   Biso      1.000     O          -0.534606           
         O18       1.0000    0.87616   0.02134   0.61482   Biso      1.000     O          -0.525563           
         O19       1.0000    0.01558   0.49165   0.86961   Biso      1.000     O          -0.534698           
         O20       1.0000    0.02134   0.61482   0.87616   Biso      1.000     O          -0.525546           
         O21       1.0000    0.49165   0.86961   0.01558   Biso      1.000     O          -0.534616           
         O22       1.0000    0.02134   0.87616   0.61482   Biso      1.000     O          -0.525552           
         O23       1.0000    0.97866   0.12384   0.38518   Biso      1.000     O          -0.5255489999999999           
         O24       1.0000    0.01558   0.86961   0.49165   Biso      1.000     O          -0.534706 