
##########################################################################
#               Crystallographic Information Format file
#               Produced by PyCifRW module
#
#  This is a CIF file.  CIF has been adopted by the International
#  Union of Crystallography as the standard for data archiving and
#  transmission.
#
#  For information on this file format, follow the CIF links at
#  http://www.iucr.org
##########################################################################

data_image0

_cell_length_a                          8.8764
_cell_length_b                          9.1908
_cell_length_c                          15.82
_cell_angle_alpha                       90
_cell_angle_beta                        90
_cell_angle_gamma                       90
_symmetry_space_group_name_H-M          'P 1'
_symmetry_int_tables_number             1
loop_
  _symmetry_equiv_pos_as_xyz
         'x, y, z' 
loop_
  _atom_site_label
  _atom_site_occupancy
  _atom_site_fract_x
  _atom_site_fract_y
  _atom_site_fract_z
  _atom_site_thermal_displace_type
  _atom_site_B_iso_or_equiv
  _atom_site_type_symbol
  _atom_site_charge
         C1        1.0000    0.14410   0.00730   0.45180   Biso      1.000     C          -0.134228           
         C2        1.0000    0.85590   0.00730   0.45180   Biso      1.000     C          -0.134228           
         C3        1.0000    0.72170   0.93110   0.41160   Biso      1.000     C          0.5946199999999999  
         C4        1.0000    0.64410   0.50730   0.04820   Biso      1.000     C          -0.13423  
         C5        1.0000    0.77830   0.43110   0.08840   Biso      1.000     C          0.594619  
         C6        1.0000    0.64410   0.49270   0.95180   Biso      1.000     C          -0.134229           
         C7        1.0000    0.77830   0.56890   0.91160   Biso      1.000     C          0.5946239999999999  
         C8        1.0000    0.22170   0.43110   0.08840   Biso      1.000     C          0.594619  
         C9        1.0000    0.35590   0.50730   0.04820   Biso      1.000     C          -0.13423  
         C10       1.0000    0.22170   0.56890   0.91160   Biso      1.000     C          0.594615  
         C11       1.0000    0.35590   0.49270   0.95180   Biso      1.000     C          -0.13423  
         C12       1.0000    0.27830   0.06890   0.58840   Biso      1.000     C          0.5946319999999999  
         C13       1.0000    0.14410   0.99270   0.54820   Biso      1.000     C          -0.134228           
         C14       1.0000    0.27830   0.93110   0.41160   Biso      1.000     C          0.594616  
         C15       1.0000    0.50000   0.55880   0.91280   Biso      1.000     C          -0.14516500000000002          
         C16       1.0000    0.50000   0.52860   0.82060   Biso      1.000     C          0.602799  
         C17       1.0000    0.50000   0.44120   0.08720   Biso      1.000     C          -0.14516300000000001          
         C18       1.0000    0.50000   0.47140   0.17940   Biso      1.000     C          0.602799  
         C19       1.0000    0.00000   0.94120   0.41280   Biso      1.000     C          -0.14516400000000002          
         C20       1.0000    0.00000   0.97140   0.32060   Biso      1.000     C          0.6028060000000001  
         C21       1.0000    0.00000   0.05880   0.58720   Biso      1.000     C          -0.14516500000000002          
         C22       1.0000    0.00000   0.02860   0.67940   Biso      1.000     C          0.602803  
         C23       1.0000    0.72170   0.06890   0.58840   Biso      1.000     C          0.594621  
         C24       1.0000    0.85590   0.99270   0.54820   Biso      1.000     C          -0.13422699999999999          
         Eu1       1.0000    0.00000   0.72847   0.81552   Biso      1.000     Eu          1.45145   
         Eu2       1.0000    0.50000   0.22847   0.68448   Biso      1.000     Eu          1.45145   
         Eu3       1.0000    0.00000   0.27153   0.18448   Biso      1.000     Eu          1.451447  
         Eu4       1.0000    0.50000   0.77153   0.31552   Biso      1.000     Eu          1.451444  
         H1        1.0000    0.00000   0.16430   0.57810   Biso      1.000     H          0.116353  
         H2        1.0000    0.64830   0.38910   0.93730   Biso      1.000     H          0.12235399999999999           
         H3        1.0000    0.64830   0.61090   0.06270   Biso      1.000     H          0.122353  
         H4        1.0000    0.85170   0.11090   0.43730   Biso      1.000     H          0.122352  
         H5        1.0000    0.85170   0.88910   0.56270   Biso      1.000     H          0.122353  
         H6        1.0000    0.00000   0.83570   0.42190   Biso      1.000     H          0.116352  
         H7        1.0000    0.35170   0.38910   0.93730   Biso      1.000     H          0.12235399999999999           
         H8        1.0000    0.14830   0.88910   0.56270   Biso      1.000     H          0.122353  
         H9        1.0000    0.14830   0.11090   0.43730   Biso      1.000     H          0.122351  
         H10       1.0000    0.50000   0.66430   0.92190   Biso      1.000     H          0.116353  
         H11       1.0000    0.35170   0.61090   0.06270   Biso      1.000     H          0.12235399999999999           
         H12       1.0000    0.50000   0.33570   0.07810   Biso      1.000     H          0.116354  
         O1        1.0000    0.00000   0.86720   0.26710   Biso      1.000     O          -0.377659           
         O2        1.0000    0.32800   0.02190   0.65880   Biso      1.000     O          -0.54577  
         O3        1.0000    0.33450   0.81660   0.44330   Biso      1.000     O          -0.543366           
         O4        1.0000    0.32800   0.97810   0.34120   Biso      1.000     O          -0.545759           
         O5        1.0000    0.50000   0.39430   0.79780   Biso      1.000     O          -0.635019           
         O6        1.0000    0.50000   0.60570   0.20220   Biso      1.000     O          -0.635012           
         O7        1.0000    0.50000   0.36720   0.23290   Biso      1.000     O          -0.377646           
         O8        1.0000    0.00000   0.10570   0.29780   Biso      1.000     O          -0.635011           
         O9        1.0000    0.33450   0.18340   0.55670   Biso      1.000     O          -0.543373           
         O10       1.0000    0.50000   0.63280   0.76710   Biso      1.000     O          -0.377645           
         O11       1.0000    0.17200   0.52190   0.84120   Biso      1.000     O          -0.545759           
         O12       1.0000    0.66550   0.81660   0.44330   Biso      1.000     O          -0.543369           
         O13       1.0000    0.17200   0.47810   0.15880   Biso      1.000     O          -0.5457569999999999           
         O14       1.0000    0.16550   0.31660   0.05670   Biso      1.000     O          -0.543363           
         O15       1.0000    0.67200   0.02190   0.65880   Biso      1.000     O          -0.545758           
         O16       1.0000    0.66550   0.18340   0.55670   Biso      1.000     O          -0.543365           
         O17       1.0000    0.67200   0.97810   0.34120   Biso      1.000     O          -0.5457569999999999           
         O18       1.0000    0.82800   0.47810   0.15880   Biso      1.000     O          -0.545766           
         O19       1.0000    0.83450   0.31660   0.05670   Biso      1.000     O          -0.543381           
         O20       1.0000    0.82800   0.52190   0.84120   Biso      1.000     O          -0.545769           
         O21       1.0000    0.83450   0.68340   0.94330   Biso      1.000     O          -0.543374           
         O22       1.0000    0.00000   0.89430   0.70220   Biso      1.000     O          -0.6350180000000001           
         O23       1.0000    0.16550   0.68340   0.94330   Biso      1.000     O          -0.543365           
         O24       1.0000    0.00000   0.13280   0.73290   Biso      1.000     O          -0.377651 