
##########################################################################
#               Crystallographic Information Format file
#               Produced by PyCifRW module
#
#  This is a CIF file.  CIF has been adopted by the International
#  Union of Crystallography as the standard for data archiving and
#  transmission.
#
#  For information on this file format, follow the CIF links at
#  http://www.iucr.org
##########################################################################

data_image0

_cell_length_a                          12.914
_cell_length_b                          12.914
_cell_length_c                          14.765
_cell_angle_alpha                       91.5224
_cell_angle_beta                        91.5224
_cell_angle_gamma                       90.3576
_symmetry_space_group_name_H-M          'P 1'
_symmetry_int_tables_number             1
loop_
  _symmetry_equiv_pos_as_xyz
         'x, y, z' 
loop_
  _atom_site_label
  _atom_site_occupancy
  _atom_site_fract_x
  _atom_site_fract_y
  _atom_site_fract_z
  _atom_site_thermal_displace_type
  _atom_site_B_iso_or_equiv
  _atom_site_type_symbol
  _atom_site_charge
         C1        1.0000    0.28760   0.54200   0.40890   Biso      1.000     C          0.57259   
         C2        1.0000    0.13350   0.56630   0.10150   Biso      1.000     C          0.091161  
         C3        1.0000    0.20280   0.53420   0.03750   Biso      1.000     C          -0.141056           
         C4        1.0000    0.18310   0.54570   0.94830   Biso      1.000     C          0.078138  
         C5        1.0000    0.05210   0.43630   0.39760   Biso      1.000     C          0.616801  
         C6        1.0000    0.21000   0.52940   0.33380   Biso      1.000     C          0.004096  
         C7        1.0000    0.11320   0.48920   0.32950   Biso      1.000     C          -0.019064           
         C8        1.0000    0.14740   0.54440   0.19770   Biso      1.000     C          0.303847  
         C9        1.0000    0.41860   0.63520   0.82480   Biso      1.000     C          -0.17556  
         C10       1.0000    0.49070   0.55710   0.82310   Biso      1.000     C          0.09637   
         C11       1.0000    0.04440   0.61400   0.06940   Biso      1.000     C          -0.17137  
         C12       1.0000    0.19320   0.98720   0.73440   Biso      1.000     C          0.567944  
         C13       1.0000    0.61400   0.04440   0.56940   Biso      1.000     C          -0.171371           
         C14       1.0000    0.56630   0.13350   0.60150   Biso      1.000     C          0.091163  
         C15       1.0000    0.53420   0.20280   0.53750   Biso      1.000     C          -0.141055           
         C16       1.0000    0.54570   0.18310   0.44830   Biso      1.000     C          0.078138  
         C17       1.0000    0.54200   0.28760   0.90890   Biso      1.000     C          0.572589  
         C18       1.0000    0.43630   0.05210   0.89760   Biso      1.000     C          0.616801  
         C19       1.0000    0.52940   0.21000   0.83380   Biso      1.000     C          0.004096  
         C20       1.0000    0.48920   0.11320   0.82950   Biso      1.000     C          -0.019064           
         C21       1.0000    0.54440   0.14740   0.69770   Biso      1.000     C          0.303847  
         C22       1.0000    0.62410   0.02830   0.47750   Biso      1.000     C          0.096012  
         C23       1.0000    0.36480   0.58140   0.67520   Biso      1.000     C          -0.175561           
         C24       1.0000    0.02830   0.62410   0.97750   Biso      1.000     C          0.096011  
         C25       1.0000    0.98720   0.19320   0.23440   Biso      1.000     C          0.567944  
         C26       1.0000    0.64670   0.35330   0.25000   Biso      1.000     C          0.062721  
         C27       1.0000    0.72740   0.27260   0.25000   Biso      1.000     C          0.304152  
         C28       1.0000    0.35330   0.64670   0.75000   Biso      1.000     C          0.062721  
         C29       1.0000    0.27260   0.72740   0.75000   Biso      1.000     C          0.304152  
         C30       1.0000    0.58140   0.36480   0.17520   Biso      1.000     C          -0.17556  
         C31       1.0000    0.50930   0.44290   0.17690   Biso      1.000     C          0.09637   
         C32       1.0000    0.80680   0.01280   0.26560   Biso      1.000     C          0.567944  
         C33       1.0000    0.79990   0.12410   0.25560   Biso      1.000     C          -0.007844           
         C34       1.0000    0.37590   0.97170   0.52250   Biso      1.000     C          0.09601   
         C35       1.0000    0.87590   0.20010   0.24440   Biso      1.000     C          -0.007843           
         C36       1.0000    0.38600   0.95560   0.43060   Biso      1.000     C          -0.17137  
         C37       1.0000    0.46580   0.79720   0.46250   Biso      1.000     C          -0.14106  
         C38       1.0000    0.45430   0.81690   0.55170   Biso      1.000     C          0.078138  
         C39       1.0000    0.45800   0.71240   0.09110   Biso      1.000     C          0.572589  
         C40       1.0000    0.56370   0.94790   0.10240   Biso      1.000     C          0.616801  
         C41       1.0000    0.47060   0.79000   0.16620   Biso      1.000     C          0.004096  
         C42       1.0000    0.51080   0.88680   0.17050   Biso      1.000     C          -0.019064           
         C43       1.0000    0.45560   0.85260   0.30230   Biso      1.000     C          0.303847  
         C44       1.0000    0.63520   0.41860   0.32480   Biso      1.000     C          -0.175561           
         C45       1.0000    0.55710   0.49070   0.32310   Biso      1.000     C          0.09637   
         C46       1.0000    0.43370   0.86650   0.39850   Biso      1.000     C          0.091166  
         C47       1.0000    0.44290   0.50930   0.67690   Biso      1.000     C          0.09637   
         C48       1.0000    0.20010   0.87590   0.74440   Biso      1.000     C          -0.007844           
         C49       1.0000    0.12410   0.79990   0.75560   Biso      1.000     C          -0.007844           
         C50       1.0000    0.85260   0.45560   0.80230   Biso      1.000     C          0.303847  
         C51       1.0000    0.88680   0.51080   0.67050   Biso      1.000     C          -0.019076           
         C52       1.0000    0.94790   0.56370   0.60240   Biso      1.000     C          0.616802  
         C53       1.0000    0.71240   0.45800   0.59110   Biso      1.000     C          0.572589  
         C54       1.0000    0.79000   0.47060   0.66620   Biso      1.000     C          0.004109  
         C55       1.0000    0.79720   0.46580   0.96250   Biso      1.000     C          -0.14106  
         C56       1.0000    0.86650   0.43370   0.89850   Biso      1.000     C          0.091166  
         C57       1.0000    0.95560   0.38600   0.93060   Biso      1.000     C          -0.171371           
         C58       1.0000    0.97170   0.37590   0.02250   Biso      1.000     C          0.096012  
         C59       1.0000    0.81690   0.45430   0.05170   Biso      1.000     C          0.078139  
         C60       1.0000    0.01280   0.80680   0.76560   Biso      1.000     C          0.567946  
         H1        1.0000    0.52370   0.23210   0.40710   Biso      1.000     H          0.096039  
         H2        1.0000    0.41370   0.67930   0.87540   Biso      1.000     H          0.143979  
         H3        1.0000    0.53130   0.54710   0.87500   Biso      1.000     H          0.10366   
         H4        1.0000    0.65740   0.96900   0.45680   Biso      1.000     H          0.107825  
         H5        1.0000    0.63900   0.99580   0.60970   Biso      1.000     H          0.137714  
         H6        1.0000    0.50390   0.26470   0.55620   Biso      1.000     H          0.137658  
         H7        1.0000    0.73530   0.49610   0.94380   Biso      1.000     H          0.137659  
         H8        1.0000    0.45290   0.46870   0.62500   Biso      1.000     H          0.10366   
         H9        1.0000    0.03100   0.34260   0.04320   Biso      1.000     H          0.107825  
         H10       1.0000    0.00420   0.36100   0.89030   Biso      1.000     H          0.137714  
         H11       1.0000    0.15800   0.44400   0.49100   Biso      1.000     H          0.407053  
         H12       1.0000    0.76790   0.47630   0.09290   Biso      1.000     H          0.096039  
         H13       1.0000    0.84200   0.55600   0.50900   Biso      1.000     H          0.407053  
         H14       1.0000    0.44400   0.15800   0.99100   Biso      1.000     H          0.407052  
         H15       1.0000    0.23210   0.52370   0.90710   Biso      1.000     H          0.096039  
         H16       1.0000    0.32070   0.58630   0.62460   Biso      1.000     H          0.143979  
         H17       1.0000    0.99580   0.63900   0.10970   Biso      1.000     H          0.137714  
         H18       1.0000    0.26470   0.50390   0.05620   Biso      1.000     H          0.137659  
         H19       1.0000    0.96300   0.03700   0.25000   Biso      1.000     H          0.325236  
         H20       1.0000    0.58630   0.32070   0.12460   Biso      1.000     H          0.143979  
         H21       1.0000    0.46870   0.45290   0.12500   Biso      1.000     H          0.10366   
         H22       1.0000    0.34260   0.03100   0.54320   Biso      1.000     H          0.107825  
         H23       1.0000    0.36100   0.00420   0.39030   Biso      1.000     H          0.137714  
         H24       1.0000    0.03700   0.96300   0.75000   Biso      1.000     H          0.325236  
         H25       1.0000    0.47630   0.76790   0.59290   Biso      1.000     H          0.096039  
         H26       1.0000    0.55600   0.84200   0.00900   Biso      1.000     H          0.407052  
         H27       1.0000    0.67930   0.41370   0.37540   Biso      1.000     H          0.143979  
         H28       1.0000    0.96900   0.65740   0.95680   Biso      1.000     H          0.107825  
         H29       1.0000    0.54710   0.53130   0.37500   Biso      1.000     H          0.10366   
         H30       1.0000    0.49610   0.73530   0.44380   Biso      1.000     H          0.137659  
         N1        1.0000    0.07140   0.49800   0.24370   Biso      1.000     N          -0.357662           
         N2        1.0000    0.23400   0.56440   0.24890   Biso      1.000     N          -0.349493           
         N3        1.0000    0.09510   0.58770   0.91710   Biso      1.000     N          -0.231019           
         N4        1.0000    0.82830   0.29250   0.24320   Biso      1.000     N          -0.345768           
         N5        1.0000    0.41230   0.90490   0.58290   Biso      1.000     N          -0.231019           
         N6        1.0000    0.43560   0.76600   0.25110   Biso      1.000     N          -0.349493           
         N7        1.0000    0.70750   0.17170   0.25680   Biso      1.000     N          -0.345768           
         N8        1.0000    0.50580   0.49420   0.75000   Biso      1.000     N          -0.212948           
         N9        1.0000    0.29250   0.82830   0.74320   Biso      1.000     N          -0.345768           
         N10       1.0000    0.49420   0.50580   0.25000   Biso      1.000     N          -0.212948           
         N11       1.0000    0.50200   0.92860   0.25630   Biso      1.000     N          -0.357662           
         N12       1.0000    0.58770   0.09510   0.41710   Biso      1.000     N          -0.23102  
         N13       1.0000    0.90490   0.41230   0.08290   Biso      1.000     N          -0.23102  
         N14       1.0000    0.49800   0.07140   0.74370   Biso      1.000     N          -0.357662           
         N15       1.0000    0.17170   0.70750   0.75680   Biso      1.000     N          -0.345768           
         N16       1.0000    0.76600   0.43560   0.75110   Biso      1.000     N          -0.349494           
         N17       1.0000    0.92860   0.50200   0.75630   Biso      1.000     N          -0.357661           
         N18       1.0000    0.56440   0.23400   0.74890   Biso      1.000     N          -0.349493           
         O1        1.0000    0.27400   0.03600   0.71980   Biso      1.000     O          -0.524659           
         O2        1.0000    0.10400   0.03080   0.73950   Biso      1.000     O          -0.487794           
         O3        1.0000    0.96330   0.40510   0.37590   Biso      1.000     O          -0.489219           
         O4        1.0000    0.09270   0.42390   0.47690   Biso      1.000     O          -0.482093           
         O5        1.0000    0.36860   0.59140   0.39160   Biso      1.000     O          -0.558466           
         O6        1.0000    0.26840   0.50440   0.48360   Biso      1.000     O          -0.561675           
         O7        1.0000    0.50440   0.26840   0.98360   Biso      1.000     O          -0.561673           
         O8        1.0000    0.03080   0.10400   0.23950   Biso      1.000     O          -0.487794           
         O9        1.0000    0.59490   0.03670   0.12410   Biso      1.000     O          -0.489219           
         O10       1.0000    0.57610   0.90730   0.02310   Biso      1.000     O          -0.482093           
         O11       1.0000    0.40860   0.63140   0.10840   Biso      1.000     O          -0.558466           
         O12       1.0000    0.49560   0.73160   0.01640   Biso      1.000     O          -0.561673           
         O13       1.0000    0.03600   0.27400   0.21980   Biso      1.000     O          -0.524659           
         O14       1.0000    0.59140   0.36860   0.89160   Biso      1.000     O          -0.558466           
         O15       1.0000    0.89600   0.96920   0.26050   Biso      1.000     O          -0.487794           
         O16       1.0000    0.40510   0.96330   0.87590   Biso      1.000     O          -0.489219           
         O17       1.0000    0.96920   0.89600   0.76050   Biso      1.000     O          -0.487794           
         O18       1.0000    0.96400   0.72600   0.78020   Biso      1.000     O          -0.524659           
         O19       1.0000    0.73160   0.49560   0.51640   Biso      1.000     O          -0.561675           
         O20       1.0000    0.63140   0.40860   0.60840   Biso      1.000     O          -0.558466           
         O21       1.0000    0.90730   0.57610   0.52310   Biso      1.000     O          -0.482094           
         O22       1.0000    0.03670   0.59490   0.62410   Biso      1.000     O          -0.48922  
         O23       1.0000    0.72600   0.96400   0.28020   Biso      1.000     O          -0.524659           
         O24       1.0000    0.42390   0.09270   0.97690   Biso      1.000     O          -0.482093           
         Zn1       1.0000    0.38174   0.61826   0.25000   Biso      1.000     Zn          0.71346   
         Zn2       1.0000    0.61826   0.38174   0.75000   Biso      1.000     Zn          0.71346   
         Zn3       1.0000    0.58884   0.06584   0.27449   Biso      1.000     Zn          0.745544  
         Zn4       1.0000    0.93416   0.41116   0.22551   Biso      1.000     Zn          0.745543  
         Zn5       1.0000    0.41116   0.93416   0.72551   Biso      1.000     Zn          0.745544  
         Zn6       1.0000    0.06584   0.58884   0.77449   Biso      1.000     Zn          0.745543 