
##########################################################################
#               Crystallographic Information Format file
#               Produced by PyCifRW module
#
#  This is a CIF file.  CIF has been adopted by the International
#  Union of Crystallography as the standard for data archiving and
#  transmission.
#
#  For information on this file format, follow the CIF links at
#  http://www.iucr.org
##########################################################################

data_image0

_cell_length_a                          9.376
_cell_length_b                          9.94
_cell_length_c                          11.377
_cell_angle_alpha                       92.979
_cell_angle_beta                        97.836
_cell_angle_gamma                       110.33
_symmetry_space_group_name_H-M          'P 1'
_symmetry_int_tables_number             1
loop_
  _symmetry_equiv_pos_as_xyz
         'x, y, z' 
loop_
  _atom_site_label
  _atom_site_occupancy
  _atom_site_fract_x
  _atom_site_fract_y
  _atom_site_fract_z
  _atom_site_thermal_displace_type
  _atom_site_B_iso_or_equiv
  _atom_site_type_symbol
  _atom_site_charge
         C1        1.0000    0.97940   0.83580   0.54420   Biso      1.000     C          -0.08467899999999999          
         C2        1.0000    0.00060   0.67690   0.38880   Biso      1.000     C          0.277398  
         C3        1.0000    0.12400   0.65790   0.45780   Biso      1.000     C          -0.230406           
         C4        1.0000    0.17770   0.73230   0.57100   Biso      1.000     C          -0.082136           
         C5        1.0000    0.10550   0.82300   0.61300   Biso      1.000     C          -0.050839999999999996         
         C6        1.0000    0.17120   0.90870   0.73260   Biso      1.000     C          0.580539  
         C7        1.0000    0.02060   0.16420   0.45580   Biso      1.000     C          -0.08467899999999999          
         C8        1.0000    0.92540   0.76200   0.43110   Biso      1.000     C          -0.201943           
         C9        1.0000    0.92570   0.74050   0.97010   Biso      1.000     C          0.636234  
         C10       1.0000    0.00560   0.43690   0.15460   Biso      1.000     C          -0.20754899999999998          
         C11       1.0000    0.89300   0.59320   0.91130   Biso      1.000     C          -0.012105           
         C12       1.0000    0.72150   0.34300   0.87300   Biso      1.000     C          0.008537000000000001          
         C13       1.0000    0.57700   0.22780   0.89370   Biso      1.000     C          0.62595   
         C14       1.0000    0.82590   0.31140   0.80890   Biso      1.000     C          -0.22899299999999997          
         C15       1.0000    0.95650   0.42390   0.79290   Biso      1.000     C          0.279308  
         C16       1.0000    0.99440   0.56310   0.84540   Biso      1.000     C          -0.207544           
         C17       1.0000    0.99940   0.32310   0.61120   Biso      1.000     C          0.277398  
         C18       1.0000    0.87600   0.34210   0.54220   Biso      1.000     C          -0.230406           
         C19       1.0000    0.82230   0.26770   0.42900   Biso      1.000     C          -0.082136           
         C20       1.0000    0.75420   0.48110   0.92030   Biso      1.000     C          -0.14725  
         C21       1.0000    0.04350   0.57610   0.20710   Biso      1.000     C          0.27931   
         C22       1.0000    0.17410   0.68860   0.19110   Biso      1.000     C          -0.228992           
         C23       1.0000    0.42300   0.77220   0.10630   Biso      1.000     C          0.62595   
         C24       1.0000    0.07460   0.23800   0.56890   Biso      1.000     C          -0.201943           
         C25       1.0000    0.89450   0.17700   0.38700   Biso      1.000     C          -0.050839999999999996         
         C26       1.0000    0.07430   0.25950   0.02990   Biso      1.000     C          0.636234  
         C27       1.0000    0.82880   0.09130   0.26740   Biso      1.000     C          0.580539  
         C28       1.0000    0.27850   0.65700   0.12700   Biso      1.000     C          0.008537999999999999          
         C29       1.0000    0.24580   0.51890   0.07970   Biso      1.000     C          -0.14725  
         C30       1.0000    0.10700   0.40680   0.08870   Biso      1.000     C          -0.012103000000000001         
         H1        1.0000    0.16020   0.23030   0.61580   Biso      1.000     H          0.147006  
         H2        1.0000    0.31730   0.49790   0.04010   Biso      1.000     H          0.129436  
         H3        1.0000    0.19220   0.78270   0.22190   Biso      1.000     H          0.14218699999999998           
         H4        1.0000    0.91380   0.36490   0.16320   Biso      1.000     H          0.145879  
         H5        1.0000    0.17000   0.59660   0.42900   Biso      1.000     H          0.13401300000000002           
         H6        1.0000    0.26120   0.72200   0.61890   Biso      1.000     H          0.12013399999999999           
         H7        1.0000    0.93030   0.89390   0.57370   Biso      1.000     H          0.1181    
         H8        1.0000    0.68270   0.50210   0.95990   Biso      1.000     H          0.129436  
         H9        1.0000    0.08620   0.63510   0.83680   Biso      1.000     H          0.145879  
         H10       1.0000    0.83000   0.40340   0.57100   Biso      1.000     H          0.13401300000000002           
         H11       1.0000    0.73880   0.27800   0.38110   Biso      1.000     H          0.12013399999999999           
         H12       1.0000    0.06970   0.10610   0.42630   Biso      1.000     H          0.118101  
         H13       1.0000    0.83980   0.76970   0.38420   Biso      1.000     H          0.147006  
         H14       1.0000    0.80780   0.21730   0.77810   Biso      1.000     H          0.14218699999999998           
         La1       1.0000    0.71556   0.95229   0.01678   Biso      1.000     La          1.925556  
         La2       1.0000    0.28444   0.04771   0.98322   Biso      1.000     La          1.925555  
         O1        1.0000    0.94070   0.16420   0.03110   Biso      1.000     O          -0.665644           
         O2        1.0000    0.17760   0.23520   0.98250   Biso      1.000     O          -0.6117239999999999           
         O3        1.0000    0.54490   0.74750   0.11820   Biso      1.000     O          -0.554326           
         O4        1.0000    0.41790   0.89360   0.07860   Biso      1.000     O          -0.705391           
         O5        1.0000    0.93920   0.60340   0.27410   Biso      1.000     O          -0.233994           
         O6        1.0000    0.28540   0.89580   0.79630   Biso      1.000     O          -0.634073           
         O7        1.0000    0.11400   0.99880   0.77070   Biso      1.000     O          -0.619228           
         O8        1.0000    0.05930   0.83580   0.96890   Biso      1.000     O          -0.665644           
         O9        1.0000    0.82240   0.76480   0.01750   Biso      1.000     O          -0.611725           
         O10       1.0000    0.45510   0.25250   0.88180   Biso      1.000     O          -0.554326           
         O11       1.0000    0.58210   0.10640   0.92140   Biso      1.000     O          -0.705391           
         O12       1.0000    0.06080   0.39660   0.72590   Biso      1.000     O          -0.233994           
         O13       1.0000    0.71460   0.10420   0.20370   Biso      1.000     O          -0.634073           
         O14       1.0000    0.88600   0.00120   0.22930   Biso      1.000     O          -0.619228 