
##########################################################################
#               Crystallographic Information Format file
#               Produced by PyCifRW module
#
#  This is a CIF file.  CIF has been adopted by the International
#  Union of Crystallography as the standard for data archiving and
#  transmission.
#
#  For information on this file format, follow the CIF links at
#  http://www.iucr.org
##########################################################################

data_image0

_cell_length_a                          9.48
_cell_length_b                          9.968
_cell_length_c                          11.255
_cell_angle_alpha                       92.329
_cell_angle_beta                        98.804
_cell_angle_gamma                       110.796
_symmetry_space_group_name_H-M          'P 1'
_symmetry_int_tables_number             1
loop_
  _symmetry_equiv_pos_as_xyz
         'x, y, z' 
loop_
  _atom_site_label
  _atom_site_occupancy
  _atom_site_fract_x
  _atom_site_fract_y
  _atom_site_fract_z
  _atom_site_thermal_displace_type
  _atom_site_B_iso_or_equiv
  _atom_site_type_symbol
  _atom_site_charge
         C1        1.0000    0.83150   0.09640   0.26460   Biso      1.000     C          0.576051  
         C2        1.0000    0.95170   0.42530   0.79530   Biso      1.000     C          0.278473  
         C3        1.0000    0.98800   0.56370   0.84800   Biso      1.000     C          -0.22268  
         C4        1.0000    0.99940   0.32770   0.61740   Biso      1.000     C          0.277739  
         C5        1.0000    0.88090   0.35000   0.54300   Biso      1.000     C          -0.231971           
         C6        1.0000    0.82900   0.27670   0.42770   Biso      1.000     C          -0.075827           
         C7        1.0000    0.89480   0.18250   0.38760   Biso      1.000     C          -0.057698           
         C8        1.0000    0.98450   0.83530   0.53830   Biso      1.000     C          -0.093335           
         C9        1.0000    0.01550   0.16470   0.46170   Biso      1.000     C          -0.093333           
         C10       1.0000    0.06920   0.23730   0.57720   Biso      1.000     C          -0.20756  
         C11       1.0000    0.82090   0.31400   0.81230   Biso      1.000     C          -0.228716           
         C12       1.0000    0.07600   0.25630   0.02950   Biso      1.000     C          0.629216  
         C13       1.0000    0.25230   0.51510   0.07980   Biso      1.000     C          -0.149101           
         C14       1.0000    0.28250   0.65530   0.12790   Biso      1.000     C          0.013641  
         C15       1.0000    0.42680   0.77230   0.10880   Biso      1.000     C          0.612416  
         C16       1.0000    0.17910   0.68600   0.18770   Biso      1.000     C          -0.228715           
         C17       1.0000    0.04830   0.57470   0.20470   Biso      1.000     C          0.278474  
         C18       1.0000    0.01200   0.43630   0.15200   Biso      1.000     C          -0.22268  
         C19       1.0000    0.00060   0.67230   0.38260   Biso      1.000     C          0.277739  
         C20       1.0000    0.11910   0.65000   0.45700   Biso      1.000     C          -0.231971           
         C21       1.0000    0.17100   0.72330   0.57230   Biso      1.000     C          -0.075827           
         C22       1.0000    0.11480   0.40650   0.08800   Biso      1.000     C          -0.020247           
         C23       1.0000    0.57320   0.22770   0.89120   Biso      1.000     C          0.612416  
         C24       1.0000    0.71750   0.34470   0.87210   Biso      1.000     C          0.013644  
         C25       1.0000    0.74770   0.48490   0.92020   Biso      1.000     C          -0.149102           
         C26       1.0000    0.93080   0.76270   0.42280   Biso      1.000     C          -0.20756  
         C27       1.0000    0.10520   0.81750   0.61240   Biso      1.000     C          -0.057697           
         C28       1.0000    0.16850   0.90360   0.73540   Biso      1.000     C          0.576052  
         C29       1.0000    0.88520   0.59350   0.91200   Biso      1.000     C          -0.020247           
         C30       1.0000    0.92400   0.74370   0.97050   Biso      1.000     C          0.629216  
         H1        1.0000    0.23200   0.13300   0.20900   Biso      1.000     H          0.43704   
         H2        1.0000    0.67600   0.50570   0.95780   Biso      1.000     H          0.134216  
         H3        1.0000    0.80280   0.21950   0.78360   Biso      1.000     H          0.142416  
         H4        1.0000    0.07980   0.63630   0.84100   Biso      1.000     H          0.143021  
         H5        1.0000    0.83690   0.41280   0.56960   Biso      1.000     H          0.134771  
         H6        1.0000    0.74950   0.29070   0.37670   Biso      1.000     H          0.118629  
         H7        1.0000    0.06120   0.10380   0.43420   Biso      1.000     H          0.110342  
         H8        1.0000    0.15080   0.22560   0.62710   Biso      1.000     H          0.146299  
         H9        1.0000    0.76800   0.86700   0.79100   Biso      1.000     H          0.43704   
         H10       1.0000    0.90600   0.98700   0.79600   Biso      1.000     H          0.463618  
         H11       1.0000    0.19720   0.78050   0.21640   Biso      1.000     H          0.142416  
         H12       1.0000    0.92020   0.36370   0.15900   Biso      1.000     H          0.14302   
         H13       1.0000    0.16310   0.58720   0.43040   Biso      1.000     H          0.134771  
         H14       1.0000    0.25050   0.70930   0.62330   Biso      1.000     H          0.118629  
         H15       1.0000    0.93880   0.89620   0.56580   Biso      1.000     H          0.110342  
         H16       1.0000    0.84920   0.77440   0.37290   Biso      1.000     H          0.146299  
         H17       1.0000    0.09400   0.01300   0.20400   Biso      1.000     H          0.463618  
         H18       1.0000    0.32400   0.49430   0.04220   Biso      1.000     H          0.134216  
         La1       1.0000    0.71630   0.95561   0.01522   Biso      1.000     La          1.908069  
         La2       1.0000    0.28370   0.04439   0.98478   Biso      1.000     La          1.908069  
         O1        1.0000    0.27810   0.88240   0.80240   Biso      1.000     O          -0.625546           
         O2        1.0000    0.94330   0.60250   0.26640   Biso      1.000     O          -0.222115           
         O3        1.0000    0.42310   0.89430   0.08050   Biso      1.000     O          -0.687918           
         O4        1.0000    0.54940   0.74840   0.12020   Biso      1.000     O          -0.568449           
         O5        1.0000    0.94810   0.16510   0.02710   Biso      1.000     O          -0.622035           
         O6        1.0000    0.18220   0.23380   0.98430   Biso      1.000     O          -0.648565           
         O7        1.0000    0.11320   0.99320   0.76800   Biso      1.000     O          -0.614274           
         O8        1.0000    0.81160   0.96010   0.80860   Biso      1.000     O          -0.849922           
         O9        1.0000    0.72190   0.11760   0.19760   Biso      1.000     O          -0.625546           
         O10       1.0000    0.05670   0.39750   0.73360   Biso      1.000     O          -0.222116           
         O11       1.0000    0.57690   0.10570   0.91950   Biso      1.000     O          -0.687918           
         O12       1.0000    0.45060   0.25160   0.87980   Biso      1.000     O          -0.568449           
         O13       1.0000    0.05190   0.83490   0.97290   Biso      1.000     O          -0.622035           
         O14       1.0000    0.81780   0.76620   0.01570   Biso      1.000     O          -0.648565           
         O15       1.0000    0.88680   0.00680   0.23200   Biso      1.000     O          -0.614274           
         O16       1.0000    0.18840   0.03990   0.19140   Biso      1.000     O          -0.849922 