
##########################################################################
#               Crystallographic Information Format file
#               Produced by PyCifRW module
#
#  This is a CIF file.  CIF has been adopted by the International
#  Union of Crystallography as the standard for data archiving and
#  transmission.
#
#  For information on this file format, follow the CIF links at
#  http://www.iucr.org
##########################################################################

data_image0

_cell_length_a                          9.491
_cell_length_b                          10.052
_cell_length_c                          11.344
_cell_angle_alpha                       94.429
_cell_angle_beta                        97.914
_cell_angle_gamma                       111.386
_symmetry_space_group_name_H-M          'P 1'
_symmetry_int_tables_number             1
loop_
  _symmetry_equiv_pos_as_xyz
         'x, y, z' 
loop_
  _atom_site_label
  _atom_site_occupancy
  _atom_site_fract_x
  _atom_site_fract_y
  _atom_site_fract_z
  _atom_site_thermal_displace_type
  _atom_site_B_iso_or_equiv
  _atom_site_type_symbol
  _atom_site_charge
         C1        1.0000    0.66570   0.40210   0.73390   Biso      1.000     C          0.5712119999999999  
         C2        1.0000    0.54290   0.07970   0.19810   Biso      1.000     C          0.27855599999999997           
         C3        1.0000    0.50730   0.93700   0.14930   Biso      1.000     C          -0.213177           
         C4        1.0000    0.49510   0.17580   0.37860   Biso      1.000     C          0.27321799999999996           
         C5        1.0000    0.61250   0.15330   0.45330   Biso      1.000     C          -0.23279899999999998          
         C6        1.0000    0.66540   0.22610   0.56650   Biso      1.000     C          -0.07775599999999999          
         C7        1.0000    0.60460   0.32000   0.61190   Biso      1.000     C          -0.044637           
         C8        1.0000    0.51550   0.66370   0.45930   Biso      1.000     C          -0.09018  
         C9        1.0000    0.48450   0.33630   0.54070   Biso      1.000     C          -0.090172           
         C10       1.0000    0.42970   0.26850   0.42150   Biso      1.000     C          -0.21711999999999998          
         C11       1.0000    0.67210   0.19200   0.18290   Biso      1.000     C          -0.229213           
         C12       1.0000    0.41940   0.24140   0.96800   Biso      1.000     C          0.644476  
         C13       1.0000    0.25200   0.98240   0.92280   Biso      1.000     C          -0.162985           
         C14       1.0000    0.22260   0.84030   0.87620   Biso      1.000     C          0.007929  
         C15       1.0000    0.07700   0.72420   0.89400   Biso      1.000     C          0.599132  
         C16       1.0000    0.32790   0.80800   0.81710   Biso      1.000     C          -0.22921999999999998          
         C17       1.0000    0.45710   0.92030   0.80190   Biso      1.000     C          0.278563  
         C18       1.0000    0.49270   0.06300   0.85070   Biso      1.000     C          -0.213177           
         C19       1.0000    0.50490   0.82420   0.62140   Biso      1.000     C          0.27321799999999996           
         C20       1.0000    0.38750   0.84670   0.54670   Biso      1.000     C          -0.2328   
         C21       1.0000    0.33460   0.77390   0.43350   Biso      1.000     C          -0.07775499999999999          
         C22       1.0000    0.38730   0.09220   0.91280   Biso      1.000     C          -0.011769           
         C23       1.0000    0.92300   0.27580   0.10600   Biso      1.000     C          0.599132  
         C24       1.0000    0.77740   0.15970   0.12380   Biso      1.000     C          0.007929  
         C25       1.0000    0.74800   0.01760   0.07720   Biso      1.000     C          -0.162985           
         C26       1.0000    0.57030   0.73150   0.57850   Biso      1.000     C          -0.217119           
         C27       1.0000    0.39540   0.68000   0.38810   Biso      1.000     C          -0.044631           
         C28       1.0000    0.33430   0.59790   0.26610   Biso      1.000     C          0.571213  
         C29       1.0000    0.61270   0.90780   0.08720   Biso      1.000     C          -0.011769           
         C30       1.0000    0.58060   0.75860   0.03200   Biso      1.000     C          0.6444770000000001  
         H1        1.0000    0.04000   0.80800   0.13000   Biso      1.000     H          0.44294399999999995           
         H2        1.0000    0.81990   0.99670   0.03930   Biso      1.000     H          0.121619  
         H3        1.0000    0.68880   0.28680   0.21120   Biso      1.000     H          0.14206300000000002           
         H4        1.0000    0.41640   0.86380   0.15770   Biso      1.000     H          0.146482  
         H5        1.0000    0.65420   0.08890   0.42540   Biso      1.000     H          0.129923  
         H6        1.0000    0.74490   0.21200   0.61470   Biso      1.000     H          0.11333599999999999           
         H7        1.0000    0.43790   0.39430   0.57250   Biso      1.000     H          0.110793  
         H8        1.0000    0.35220   0.28500   0.37290   Biso      1.000     H          0.14775   
         H9        1.0000    0.96000   0.19200   0.87000   Biso      1.000     H          0.44294399999999995           
         H10       1.0000    0.07000   0.26000   0.81000   Biso      1.000     H          0.41371099999999994           
         H11       1.0000    0.31120   0.71320   0.78880   Biso      1.000     H          0.14206400000000002           
         H12       1.0000    0.58360   0.13620   0.84230   Biso      1.000     H          0.146482  
         H13       1.0000    0.34580   0.91110   0.57460   Biso      1.000     H          0.129923  
         H14       1.0000    0.25510   0.78800   0.38530   Biso      1.000     H          0.11333599999999999           
         H15       1.0000    0.56210   0.60570   0.42750   Biso      1.000     H          0.110793  
         H16       1.0000    0.64780   0.71500   0.62710   Biso      1.000     H          0.14775   
         H17       1.0000    0.93000   0.74000   0.19000   Biso      1.000     H          0.41371099999999994           
         H18       1.0000    0.18010   0.00330   0.96070   Biso      1.000     H          0.121619  
         La1       1.0000    0.21401   0.45409   0.01294   Biso      1.000     La          1.88363   
         La2       1.0000    0.78599   0.54591   0.98706   Biso      1.000     La          1.883629  
         O1        1.0000    0.22690   0.62060   0.20010   Biso      1.000     O          -0.618859           
         O2        1.0000    0.56210   0.89230   0.73840   Biso      1.000     O          -0.230498           
         O3        1.0000    0.08080   0.60340   0.92140   Biso      1.000     O          -0.6663479999999999           
         O4        1.0000    0.95530   0.74810   0.88610   Biso      1.000     O          -0.571956           
         O5        1.0000    0.31470   0.26110   0.00770   Biso      1.000     O          -0.612371           
         O6        1.0000    0.55300   0.33660   0.97300   Biso      1.000     O          -0.670179           
         O7        1.0000    0.38260   0.50550   0.22740   Biso      1.000     O          -0.611781           
         O8        1.0000    0.00290   0.27840   0.84830   Biso      1.000     O          -0.765151           
         O9        1.0000    0.77310   0.37940   0.79990   Biso      1.000     O          -0.6188600000000001           
         O10       1.0000    0.43790   0.10770   0.26160   Biso      1.000     O          -0.230498           
         O11       1.0000    0.91920   0.39660   0.07860   Biso      1.000     O          -0.666349           
         O12       1.0000    0.04470   0.25190   0.11390   Biso      1.000     O          -0.571956           
         O13       1.0000    0.68530   0.73890   0.99230   Biso      1.000     O          -0.612372           
         O14       1.0000    0.44700   0.66340   0.02700   Biso      1.000     O          -0.670179           
         O15       1.0000    0.61740   0.49450   0.77260   Biso      1.000     O          -0.611781           
         O16       1.0000    0.99710   0.72160   0.15170   Biso      1.000     O          -0.765151 