
##########################################################################
#               Crystallographic Information Format file
#               Produced by PyCifRW module
#
#  This is a CIF file.  CIF has been adopted by the International
#  Union of Crystallography as the standard for data archiving and
#  transmission.
#
#  For information on this file format, follow the CIF links at
#  http://www.iucr.org
##########################################################################

data_image0

_cell_length_a                          12.177
_cell_length_b                          13.175
_cell_length_c                          15.814
_cell_angle_alpha                       66.028
_cell_angle_beta                        87.249
_cell_angle_gamma                       89.986
_symmetry_space_group_name_H-M          'P 1'
_symmetry_int_tables_number             1
loop_
  _symmetry_equiv_pos_as_xyz
         'x, y, z' 
loop_
  _atom_site_label
  _atom_site_occupancy
  _atom_site_fract_x
  _atom_site_fract_y
  _atom_site_fract_z
  _atom_site_thermal_displace_type
  _atom_site_B_iso_or_equiv
  _atom_site_type_symbol
  _atom_site_charge
         C1        1.0000    0.25650   0.30140   0.44720   Biso      1.000     C          0.61982   
         C2        1.0000    0.86250   0.86430   0.82190   Biso      1.000     C          -0.135436           
         C3        1.0000    0.76840   0.40660   0.60920   Biso      1.000     C          -0.13647  
         C4        1.0000    0.83760   0.78450   0.90520   Biso      1.000     C          0.050972  
         C5        1.0000    0.75930   0.69890   0.92330   Biso      1.000     C          -3.6e-05  
         C6        1.0000    0.70260   0.70420   0.84900   Biso      1.000     C          0.033679  
         C7        1.0000    0.72030   0.79590   0.75980   Biso      1.000     C          -0.129516           
         C8        1.0000    0.83180   0.37210   0.55060   Biso      1.000     C          -0.001821           
         C9        1.0000    0.74050   0.60060   0.01570   Biso      1.000     C          0.013931  
         C10       1.0000    0.65260   0.60520   0.07410   Biso      1.000     C          0.030489  
         C11       1.0000    0.63010   0.51630   0.16270   Biso      1.000     C          -0.142218           
         C12       1.0000    0.80050   0.86930   0.74630   Biso      1.000     C          0.01845   
         C13       1.0000    0.94060   0.41030   0.52520   Biso      1.000     C          -0.120427           
         C14       1.0000    0.78430   0.42180   0.13430   Biso      1.000     C          -0.108087           
         C15       1.0000    0.98240   0.49790   0.55100   Biso      1.000     C          0.015513  
         C16       1.0000    0.80370   0.50680   0.04920   Biso      1.000     C          0.064098  
         C17       1.0000    0.67340   0.33210   0.28600   Biso      1.000     C          0.603121  
         C18       1.0000    0.14970   0.91200   0.62170   Biso      1.000     C          0.593634  
         C19       1.0000    0.07500   0.81920   0.62130   Biso      1.000     C          0.026096  
         C20       1.0000    0.01280   0.83280   0.54960   Biso      1.000     C          -0.110932           
         C21       1.0000    0.91640   0.53910   0.60440   Biso      1.000     C          -0.003354           
         C22       1.0000    0.95460   0.74170   0.54900   Biso      1.000     C          0.04166   
         C23       1.0000    0.95830   0.63540   0.61890   Biso      1.000     C          -0.013638           
         C24       1.0000    0.69990   0.42770   0.18970   Biso      1.000     C          0.016921  
         C25       1.0000    0.02200   0.62720   0.69140   Biso      1.000     C          0.073949  
         C26       1.0000    0.82660   0.96600   0.65040   Biso      1.000     C          0.600174  
         C27       1.0000    0.91640   0.06680   0.14100   Biso      1.000     C          0.048694  
         C28       1.0000    0.28720   0.41230   0.37070   Biso      1.000     C          0.176053  
         C29       1.0000    0.29740   0.40240   0.28000   Biso      1.000     C          -0.512011           
         C30       1.0000    0.57570   0.84820   0.51410   Biso      1.000     C          -0.532807           
         C31       1.0000    0.09300   0.15210   0.70510   Biso      1.000     C          0.632638  
         C32       1.0000    0.06170   0.13910   0.80120   Biso      1.000     C          0.015139  
         C33       1.0000    0.12180   0.07770   0.87080   Biso      1.000     C          -0.107657           
         C34       1.0000    0.55620   0.96310   0.44100   Biso      1.000     C          0.18389   
         C35       1.0000    0.96880   0.12090   0.35290   Biso      1.000     C          0.582276  
         C36       1.0000    0.01310   0.12680   0.98250   Biso      1.000     C          0.001519  
         C37       1.0000    0.09030   0.06690   0.96310   Biso      1.000     C          0.043516  
         C38       1.0000    0.97450   0.19610   0.81840   Biso      1.000     C          -0.111709           
         C39       1.0000    0.49650   0.03300   0.48890   Biso      1.000     C          0.590581  
         C40       1.0000    0.99530   0.13010   0.07460   Biso      1.000     C          0.008239  
         C41       1.0000    0.06420   0.19530   0.10600   Biso      1.000     C          0.033894  
         C42       1.0000    0.05360   0.19130   0.19380   Biso      1.000     C          -0.130644           
         C43       1.0000    0.79300   0.28080   0.52130   Biso      1.000     C          0.624902  
         C44       1.0000    0.97390   0.12450   0.25620   Biso      1.000     C          0.020701  
         C45       1.0000    0.90300   0.05780   0.23180   Biso      1.000     C          -0.127499           
         C46       1.0000    0.80500   0.48780   0.63040   Biso      1.000     C          0.052413  
         C47       1.0000    0.95030   0.19410   0.90560   Biso      1.000     C          0.051965  
         C48       1.0000    0.07510   0.71340   0.69360   Biso      1.000     C          -0.112309           
         Cd1       1.0000    0.02208   0.14372   0.52316   Biso      1.000     Cd          1.080832  
         Cd2       1.0000    0.52000   0.31511   0.46936   Biso      1.000     Cd          1.137057  
         Cd3       1.0000    0.30249   0.07061   0.60559   Biso      1.000     Cd          1.061686  
         Cd4       1.0000    0.73680   0.12133   0.45528   Biso      1.000     Cd          1.02536   
         H1        1.0000    0.00840   0.90220   0.50090   Biso      1.000     H          0.142373  
         H2        1.0000    0.23000   0.46560   0.36830   Biso      1.000     H          0.081795  
         H3        1.0000    0.31660   0.47370   0.23160   Biso      1.000     H          0.181767  
         H4        1.0000    0.68250   0.99940   0.34250   Biso      1.000     H          0.405353  
         H5        1.0000    0.11430   0.70330   0.74540   Biso      1.000     H          0.150254  
         H6        1.0000    0.40530   0.52480   0.37570   Biso      1.000     H          0.408136  
         H7        1.0000    0.62110   0.85400   0.56000   Biso      1.000     H          0.170774  
         H8        1.0000    0.50650   0.81340   0.54290   Biso      1.000     H          0.178048  
         H9        1.0000    0.61190   0.80440   0.48570   Biso      1.000     H          0.166454  
         H10       1.0000    0.22850   0.37670   0.26800   Biso      1.000     H          0.190478  
         H11       1.0000    0.35350   0.35050   0.28210   Biso      1.000     H          0.173085  
         H12       1.0000    0.50670   0.95540   0.39680   Biso      1.000     H          0.069318  
         H13       1.0000    0.93060   0.23720   0.77010   Biso      1.000     H          0.13273   
         H14       1.0000    0.18350   0.04210   0.86020   Biso      1.000     H          0.144258  
         H15       1.0000    0.67530   0.80350   0.71180   Biso      1.000     H          0.136375  
         H16       1.0000    0.98590   0.38070   0.49230   Biso      1.000     H          0.139136  
         H17       1.0000    0.57030   0.51820   0.20090   Biso      1.000     H          0.134978  
         H18       1.0000    0.82940   0.36040   0.15370   Biso      1.000     H          0.144062  
         H19       1.0000    0.91900   0.91570   0.81330   Biso      1.000     H          0.143609  
         H20       1.0000    0.85020   0.01050   0.27380   Biso      1.000     H          0.131561  
         H21       1.0000    0.70030   0.37280   0.63350   Biso      1.000     H          0.143704  
         H22       1.0000    0.10050   0.23410   0.21150   Biso      1.000     H          0.144082  
         N1        1.0000    0.15230   0.26870   0.04280   Biso      1.000     N          0.560143  
         N2        1.0000    0.86260   0.25880   0.92060   Biso      1.000     N          0.528315  
         N3        1.0000    0.15870   0.98890   0.03860   Biso      1.000     N          0.537984  
         N4        1.0000    0.89100   0.75820   0.46870   Biso      1.000     N          0.516777  
         N5        1.0000    0.03520   0.51750   0.76410   Biso      1.000     N          0.504124  
         N6        1.0000    0.73660   0.52380   0.69180   Biso      1.000     N          0.553981  
         N7        1.0000    0.61120   0.62550   0.85490   Biso      1.000     N          0.535191  
         N8        1.0000    0.89930   0.50390   0.99250   Biso      1.000     N          0.554346  
         N9        1.0000    0.57520   0.69570   0.05350   Biso      1.000     N          0.547541  
         N10       1.0000    0.89450   0.79250   0.98390   Biso      1.000     N          0.562814  
         N11       1.0000    0.84160   0.99330   0.11770   Biso      1.000     N          0.523546  
         N12       1.0000    0.09140   0.53620   0.51820   Biso      1.000     N          0.578844  
         O1        1.0000    0.58440   0.33920   0.32980   Biso      1.000     O          -0.618402           
         O2        1.0000    0.21940   0.89110   0.68090   Biso      1.000     O          -0.505678           
         O3        1.0000    0.14710   0.00620   0.55280   Biso      1.000     O          -0.606694           
         O4        1.0000    0.11870   0.50430   0.81320   Biso      1.000     O          -0.307715           
         O5        1.0000    0.96580   0.44450   0.77900   Biso      1.000     O          -0.306508           
         O6        1.0000    0.94140   0.81960   0.39150   Biso      1.000     O          -0.334283           
         O7        1.0000    0.80380   0.71230   0.48010   Biso      1.000     O          -0.300865           
         O8        1.0000    0.86130   0.24140   0.48410   Biso      1.000     O          -0.534949           
         O9        1.0000    0.64970   0.47660   0.71840   Biso      1.000     O          -0.306386           
         O10       1.0000    0.15370   0.51910   0.58170   Biso      1.000     O          -0.370624           
         O11       1.0000    0.11630   0.57880   0.44190   Biso      1.000     O          -0.280194           
         O12       1.0000    0.69190   0.25820   0.53320   Biso      1.000     O          -0.603942           
         O13       1.0000    0.54780   0.11580   0.48950   Biso      1.000     O          -0.596332           
         O14       1.0000    0.39920   0.00080   0.52010   Biso      1.000     O          -0.517519           
         O15       1.0000    0.65350   0.01050   0.39350   Biso      1.000     O          -0.515088           
         O16       1.0000    0.74600   0.26210   0.31370   Biso      1.000     O          -0.519964           
         O17       1.0000    0.76020   0.60560   0.70280   Biso      1.000     O          -0.31864  
         O18       1.0000    0.97310   0.44920   0.03250   Biso      1.000     O          -0.312827           
         O19       1.0000    0.03830   0.17730   0.37080   Biso      1.000     O          -0.51538  
         O20       1.0000    0.48120   0.68220   0.06540   Biso      1.000     O          -0.276249           
         O21       1.0000    0.33860   0.24160   0.48950   Biso      1.000     O          -0.617716           
         O22       1.0000    0.15830   0.27980   0.46570   Biso      1.000     O          -0.511801           
         O23       1.0000    0.39070   0.44970   0.39210   Biso      1.000     O          -0.560711           
         O24       1.0000    0.18810   0.12040   0.69510   Biso      1.000     O          -0.606237           
         O25       1.0000    0.02360   0.18700   0.64640   Biso      1.000     O          -0.556895           
         O26       1.0000    0.25200   0.97190   0.01750   Biso      1.000     O          -0.336922           
         O27       1.0000    0.11300   0.94060   0.11190   Biso      1.000     O          -0.314596           
         O28       1.0000    0.78640   0.28010   0.86470   Biso      1.000     O          -0.347875           
         O29       1.0000    0.17120   0.26590   0.97160   Biso      1.000     O          -0.299415           
         O30       1.0000    0.90410   0.55130   0.90880   Biso      1.000     O          -0.34408  
         O31       1.0000    0.19220   0.33790   0.06490   Biso      1.000     O          -0.345142           
         O32       1.0000    0.82240   0.90040   0.17640   Biso      1.000     O          -0.316783           
         O33       1.0000    0.89500   0.05450   0.41060   Biso      1.000     O          -0.620657           
         O34       1.0000    0.91990   0.00330   0.63380   Biso      1.000     O          -0.547151           
         O35       1.0000    0.74430   0.98710   0.59740   Biso      1.000     O          -0.580973           
         O36       1.0000    0.93140   0.87650   0.97530   Biso      1.000     O          -0.292156           
         O37       1.0000    0.92400   0.70430   0.04360   Biso      1.000     O          -0.366016           
         O38       1.0000    0.61860   0.53080   0.91340   Biso      1.000     O          -0.333215           
         O39       1.0000    0.54050   0.65830   0.80210   Biso      1.000     O          -0.29704  
         O40       1.0000    0.61830   0.79170   0.01360   Biso      1.000     O          -0.378344           
         O41       1.0000    0.79840   0.03550   0.04270   Biso      1.000     O          -0.323609           
         O42       1.0000    0.86130   0.29060   0.98190   Biso      1.000     O          -0.307659 