
##########################################################################
#               Crystallographic Information Format file
#               Produced by PyCifRW module
#
#  This is a CIF file.  CIF has been adopted by the International
#  Union of Crystallography as the standard for data archiving and
#  transmission.
#
#  For information on this file format, follow the CIF links at
#  http://www.iucr.org
##########################################################################

data_image0

_cell_length_a                          14.7147
_cell_length_b                          19.5849
_cell_length_c                          19.6532
_cell_angle_alpha                       90
_cell_angle_beta                        90
_cell_angle_gamma                       90
_symmetry_space_group_name_H-M          'P 1'
_symmetry_int_tables_number             1
loop_
  _symmetry_equiv_pos_as_xyz
         'x, y, z' 
loop_
  _atom_site_label
  _atom_site_occupancy
  _atom_site_fract_x
  _atom_site_fract_y
  _atom_site_fract_z
  _atom_site_thermal_displace_type
  _atom_site_B_iso_or_equiv
  _atom_site_type_symbol
  _atom_site_charge
         Ba1       1.0000    0.13386   0.61269   0.78626   Biso      1.000     Ba          1.625709  
         Ba2       1.0000    0.36614   0.38731   0.28626   Biso      1.000     Ba          1.625709  
         Ba3       1.0000    0.63386   0.88731   0.21374   Biso      1.000     Ba          1.625709  
         Ba4       1.0000    0.86614   0.38731   0.21374   Biso      1.000     Ba          1.625709  
         Ba5       1.0000    0.36614   0.11269   0.78626   Biso      1.000     Ba          1.625709  
         Ba6       1.0000    0.86614   0.11269   0.71374   Biso      1.000     Ba          1.625709  
         Ba7       1.0000    0.13386   0.88731   0.28626   Biso      1.000     Ba          1.625709  
         Ba8       1.0000    0.63386   0.61269   0.71374   Biso      1.000     Ba          1.625709  
         C1        1.0000    0.17220   0.04800   0.90010   Biso      1.000     C          0.611467  
         C2        1.0000    0.17920   0.03510   0.97510   Biso      1.000     C          -0.119362           
         C3        1.0000    0.61530   0.31080   0.24870   Biso      1.000     C          0.660915  
         C4        1.0000    0.60790   0.23560   0.24740   Biso      1.000     C          -0.147192           
         C5        1.0000    0.67220   0.04800   0.59990   Biso      1.000     C          0.611467  
         C6        1.0000    0.67920   0.03510   0.52490   Biso      1.000     C          -0.119362           
         C7        1.0000    0.67560   0.18630   0.24050   Biso      1.000     C          -0.101347           
         C8        1.0000    0.60980   0.03470   0.47950   Biso      1.000     C          -0.113977           
         C9        1.0000    0.22750   0.99900   0.08950   Biso      1.000     C          -0.115887           
         C10       1.0000    0.72750   0.99900   0.41050   Biso      1.000     C          -0.115887           
         C11       1.0000    0.78040   0.97520   0.35130   Biso      1.000     C          0.606441  
         C12       1.0000    0.00580   0.55440   0.25690   Biso      1.000     C          0.606365  
         C13       1.0000    0.94620   0.61710   0.25190   Biso      1.000     C          -0.086851           
         C14       1.0000    0.55380   0.11710   0.25190   Biso      1.000     C          -0.086855           
         C15       1.0000    0.85710   0.62330   0.24250   Biso      1.000     C          -0.096516           
         C16       1.0000    0.49420   0.05440   0.25690   Biso      1.000     C          0.606365  
         C17       1.0000    0.82440   0.68630   0.24050   Biso      1.000     C          -0.101311           
         C18       1.0000    0.89210   0.73560   0.24740   Biso      1.000     C          -0.147196           
         C19       1.0000    0.88470   0.81080   0.24870   Biso      1.000     C          0.660915  
         C20       1.0000    0.64290   0.12330   0.24250   Biso      1.000     C          -0.096481           
         C21       1.0000    0.63720   0.01540   0.41390   Biso      1.000     C          -0.113933           
         C22       1.0000    0.67920   0.46490   0.02490   Biso      1.000     C          -0.119362           
         C23       1.0000    0.60980   0.46530   0.97950   Biso      1.000     C          -0.113977           
         C24       1.0000    0.88470   0.68920   0.74870   Biso      1.000     C          0.660915  
         C25       1.0000    0.89210   0.76440   0.74740   Biso      1.000     C          -0.147192           
         C26       1.0000    0.28040   0.97520   0.14870   Biso      1.000     C          0.606441  
         C27       1.0000    0.82440   0.81370   0.74050   Biso      1.000     C          -0.101342           
         C28       1.0000    0.82780   0.95200   0.09990   Biso      1.000     C          0.611467  
         C29       1.0000    0.82080   0.96490   0.02490   Biso      1.000     C          -0.119362           
         C30       1.0000    0.85710   0.87670   0.74250   Biso      1.000     C          -0.096524           
         C31       1.0000    0.89020   0.96530   0.97950   Biso      1.000     C          -0.113976           
         C32       1.0000    0.94620   0.88290   0.75190   Biso      1.000     C          -0.086811           
         C33       1.0000    0.86280   0.98460   0.91390   Biso      1.000     C          -0.113942           
         C34       1.0000    0.67220   0.45200   0.09990   Biso      1.000     C          0.611467  
         C35       1.0000    0.77250   0.00100   0.91050   Biso      1.000     C          -0.115877           
         C36       1.0000    0.49420   0.44560   0.75690   Biso      1.000     C          0.606365  
         C37       1.0000    0.55380   0.38290   0.75190   Biso      1.000     C          -0.086851           
         C38       1.0000    0.00580   0.94560   0.75690   Biso      1.000     C          0.60636   
         C39       1.0000    0.64290   0.37670   0.74250   Biso      1.000     C          -0.096516           
         C40       1.0000    0.78040   0.52480   0.85130   Biso      1.000     C          0.606441  
         C41       1.0000    0.67560   0.31370   0.74050   Biso      1.000     C          -0.101311           
         C42       1.0000    0.60790   0.26440   0.74740   Biso      1.000     C          -0.147196           
         C43       1.0000    0.61530   0.18920   0.74870   Biso      1.000     C          0.660915  
         C44       1.0000    0.72750   0.50100   0.91050   Biso      1.000     C          -0.115887           
         C45       1.0000    0.63720   0.48460   0.91390   Biso      1.000     C          -0.113932           
         C46       1.0000    0.71960   0.02480   0.85130   Biso      1.000     C          0.60644   
         C47       1.0000    0.71960   0.47520   0.35130   Biso      1.000     C          0.60644   
         C48       1.0000    0.89020   0.53470   0.47950   Biso      1.000     C          -0.113992           
         C49       1.0000    0.86280   0.51540   0.41390   Biso      1.000     C          -0.11394  
         C50       1.0000    0.39020   0.96530   0.52050   Biso      1.000     C          -0.113992           
         C51       1.0000    0.32080   0.96490   0.47510   Biso      1.000     C          -0.119345           
         C52       1.0000    0.32780   0.95200   0.40010   Biso      1.000     C          0.611465  
         C53       1.0000    0.13720   0.01540   0.08610   Biso      1.000     C          -0.113932           
         C54       1.0000    0.38470   0.81080   0.25130   Biso      1.000     C          0.660915  
         C55       1.0000    0.39210   0.73560   0.25260   Biso      1.000     C          -0.147192           
         C56       1.0000    0.32780   0.54800   0.90010   Biso      1.000     C          0.611467  
         C57       1.0000    0.32080   0.53510   0.97510   Biso      1.000     C          -0.119362           
         C58       1.0000    0.32440   0.68630   0.25950   Biso      1.000     C          -0.101342           
         C59       1.0000    0.39020   0.53470   0.02050   Biso      1.000     C          -0.113977           
         C60       1.0000    0.36280   0.98460   0.58610   Biso      1.000     C          -0.11394  
         C61       1.0000    0.35710   0.62330   0.25750   Biso      1.000     C          -0.096524           
         C62       1.0000    0.27250   0.49900   0.08950   Biso      1.000     C          -0.115887           
         C63       1.0000    0.21960   0.47520   0.14870   Biso      1.000     C          0.606441  
         C64       1.0000    0.99420   0.05440   0.24310   Biso      1.000     C          0.606365  
         C65       1.0000    0.05380   0.11710   0.24810   Biso      1.000     C          -0.086851           
         C66       1.0000    0.44620   0.61710   0.24810   Biso      1.000     C          -0.086811           
         C67       1.0000    0.14290   0.12330   0.25750   Biso      1.000     C          -0.096516           
         C68       1.0000    0.50580   0.55440   0.24310   Biso      1.000     C          0.60636   
         C69       1.0000    0.17560   0.18630   0.25950   Biso      1.000     C          -0.101311           
         C70       1.0000    0.10790   0.23560   0.25260   Biso      1.000     C          -0.147196           
         C71       1.0000    0.11530   0.31080   0.25130   Biso      1.000     C          0.660915  
         C72       1.0000    0.36280   0.51540   0.08610   Biso      1.000     C          -0.113933           
         C73       1.0000    0.77250   0.49900   0.41050   Biso      1.000     C          -0.115877           
         C74       1.0000    0.27250   0.00100   0.58950   Biso      1.000     C          -0.115877           
         C75       1.0000    0.38470   0.68920   0.75130   Biso      1.000     C          0.660915  
         C76       1.0000    0.82080   0.53510   0.52490   Biso      1.000     C          -0.119345           
         C77       1.0000    0.82780   0.54800   0.59990   Biso      1.000     C          0.611465  
         C78       1.0000    0.10980   0.03470   0.02050   Biso      1.000     C          -0.113977           
         C79       1.0000    0.11530   0.18920   0.75130   Biso      1.000     C          0.660915  
         C80       1.0000    0.10790   0.26440   0.75260   Biso      1.000     C          -0.147192           
         C81       1.0000    0.17220   0.45200   0.40010   Biso      1.000     C          0.611467  
         C82       1.0000    0.17920   0.46490   0.47510   Biso      1.000     C          -0.119362           
         C83       1.0000    0.17560   0.31370   0.75950   Biso      1.000     C          -0.101342           
         C84       1.0000    0.10980   0.46530   0.52050   Biso      1.000     C          -0.113976           
         C85       1.0000    0.14290   0.37670   0.75750   Biso      1.000     C          -0.096524           
         C86       1.0000    0.21960   0.02480   0.64870   Biso      1.000     C          0.60644   
         C87       1.0000    0.13720   0.48460   0.58610   Biso      1.000     C          -0.113942           
         C88       1.0000    0.28040   0.52480   0.64870   Biso      1.000     C          0.60644   
         C89       1.0000    0.50580   0.94560   0.74310   Biso      1.000     C          0.606365  
         C90       1.0000    0.44620   0.88290   0.74810   Biso      1.000     C          -0.086851           
         C91       1.0000    0.05380   0.38290   0.74810   Biso      1.000     C          -0.086811           
         C92       1.0000    0.35710   0.87670   0.75750   Biso      1.000     C          -0.096516           
         C93       1.0000    0.99420   0.44560   0.74310   Biso      1.000     C          0.60636   
         C94       1.0000    0.32440   0.81370   0.75950   Biso      1.000     C          -0.101311           
         C95       1.0000    0.39210   0.76440   0.75260   Biso      1.000     C          -0.147196           
         C96       1.0000    0.22750   0.50100   0.58950   Biso      1.000     C          -0.115877           
         Cd1       1.0000    0.37843   0.94811   0.26401   Biso      1.000     Cd          0.949989  
         Cd2       1.0000    0.12157   0.05189   0.76401   Biso      1.000     Cd          0.949989  
         Cd3       1.0000    0.62157   0.44811   0.23599   Biso      1.000     Cd          0.949989  
         Cd4       1.0000    0.87843   0.55189   0.73599   Biso      1.000     Cd          0.949989  
         Cd5       1.0000    0.12157   0.44811   0.26401   Biso      1.000     Cd          0.949989  
         Cd6       1.0000    0.37843   0.55189   0.76401   Biso      1.000     Cd          0.949989  
         Cd7       1.0000    0.62157   0.05189   0.73599   Biso      1.000     Cd          0.949989  
         Cd8       1.0000    0.87843   0.94811   0.23599   Biso      1.000     Cd          0.949989  
         H1        1.0000    0.09820   0.01400   0.12330   Biso      1.000     H          0.130829  
         H2        1.0000    0.09820   0.48600   0.62330   Biso      1.000     H          0.130829  
         H3        1.0000    0.18040   0.41460   0.76250   Biso      1.000     H          0.137873  
         H4        1.0000    0.31960   0.91460   0.76250   Biso      1.000     H          0.137872  
         H5        1.0000    0.26310   0.80350   0.76490   Biso      1.000     H          0.124119  
         H6        1.0000    0.94970   0.54610   0.49060   Biso      1.000     H          0.134732  
         H7        1.0000    0.05030   0.04610   0.00940   Biso      1.000     H          0.134731  
         H8        1.0000    0.90180   0.51400   0.37670   Biso      1.000     H          0.130829  
         H9        1.0000    0.44970   0.95390   0.50940   Biso      1.000     H          0.134732  
         H10       1.0000    0.76310   0.69650   0.23510   Biso      1.000     H          0.124119  
         H11       1.0000    0.40180   0.98600   0.62330   Biso      1.000     H          0.130829  
         H12       1.0000    0.55030   0.04610   0.49060   Biso      1.000     H          0.134731  
         H13       1.0000    0.73690   0.19650   0.23510   Biso      1.000     H          0.124122  
         H14       1.0000    0.59820   0.01400   0.37670   Biso      1.000     H          0.130829  
         H15       1.0000    0.23690   0.30350   0.76490   Biso      1.000     H          0.124122  
         H16       1.0000    0.68040   0.08540   0.23750   Biso      1.000     H          0.13787   
         H17       1.0000    0.05030   0.45390   0.50940   Biso      1.000     H          0.134731  
         H18       1.0000    0.81960   0.58540   0.23750   Biso      1.000     H          0.137872  
         H19       1.0000    0.59820   0.48600   0.87670   Biso      1.000     H          0.130829  
         H20       1.0000    0.23690   0.19650   0.26490   Biso      1.000     H          0.124119  
         H21       1.0000    0.73690   0.30350   0.73510   Biso      1.000     H          0.124119  
         H22       1.0000    0.68040   0.41460   0.73750   Biso      1.000     H          0.137872  
         H23       1.0000    0.90180   0.98600   0.87670   Biso      1.000     H          0.130829  
         H24       1.0000    0.81960   0.91460   0.73750   Biso      1.000     H          0.137873  
         H25       1.0000    0.94970   0.95390   0.99060   Biso      1.000     H          0.134731  
         H26       1.0000    0.76310   0.80350   0.73510   Biso      1.000     H          0.124122  
         H27       1.0000    0.55030   0.45390   0.99060   Biso      1.000     H          0.134731  
         H28       1.0000    0.18040   0.08540   0.26250   Biso      1.000     H          0.137872  
         H29       1.0000    0.31960   0.58540   0.26250   Biso      1.000     H          0.137873  
         H30       1.0000    0.44970   0.54610   0.00940   Biso      1.000     H          0.134731  
         H31       1.0000    0.26310   0.69650   0.26490   Biso      1.000     H          0.124122  
         H32       1.0000    0.40180   0.51400   0.12330   Biso      1.000     H          0.130829  
         O1        1.0000    0.45740   0.65720   0.74290   Biso      1.000     O          -0.668851           
         O2        1.0000    0.24240   0.04130   0.86440   Biso      1.000     O          -0.675749           
         O3        1.0000    0.31000   0.66380   0.76570   Biso      1.000     O          -0.637356           
         O4        1.0000    0.58890   0.93470   0.73110   Biso      1.000     O          -0.531119           
         O5        1.0000    0.09480   0.06230   0.87760   Biso      1.000     O          -0.531276           
         O6        1.0000    0.75760   0.95870   0.13560   Biso      1.000     O          -0.675749           
         O7        1.0000    0.40520   0.56230   0.87760   Biso      1.000     O          -0.531276           
         O8        1.0000    0.04260   0.34280   0.24290   Biso      1.000     O          -0.668851           
         O9        1.0000    0.19000   0.33620   0.26570   Biso      1.000     O          -0.637356           
         O10       1.0000    0.91110   0.06530   0.23110   Biso      1.000     O          -0.531119           
         O11       1.0000    0.02920   0.99630   0.25180   Biso      1.000     O          -0.644821           
         O12       1.0000    0.26010   0.46970   0.20480   Biso      1.000     O          -0.649853           
         O13       1.0000    0.25760   0.95870   0.36440   Biso      1.000     O          -0.675749           
         O14       1.0000    0.25760   0.54130   0.86440   Biso      1.000     O          -0.675749           
         O15       1.0000    0.40520   0.93770   0.37760   Biso      1.000     O          -0.531276           
         O16       1.0000    0.26010   0.03030   0.70480   Biso      1.000     O          -0.649853           
         O17       1.0000    0.02920   0.50370   0.75180   Biso      1.000     O          -0.644821           
         O18       1.0000    0.91110   0.43470   0.73110   Biso      1.000     O          -0.531119           
         O19       1.0000    0.47080   0.00370   0.75180   Biso      1.000     O          -0.644821           
         O20       1.0000    0.04260   0.15720   0.74290   Biso      1.000     O          -0.668851           
         O21       1.0000    0.13570   0.46530   0.14270   Biso      1.000     O          -0.561851           
         O22       1.0000    0.13570   0.03470   0.64270   Biso      1.000     O          -0.561851           
         O23       1.0000    0.19000   0.16380   0.76570   Biso      1.000     O          -0.637356           
         O24       1.0000    0.54260   0.34280   0.25710   Biso      1.000     O          -0.668851           
         O25       1.0000    0.75760   0.54130   0.63560   Biso      1.000     O          -0.675749           
         O26       1.0000    0.73990   0.53030   0.79520   Biso      1.000     O          -0.649853           
         O27       1.0000    0.97080   0.00370   0.74820   Biso      1.000     O          -0.644821           
         O28       1.0000    0.08890   0.93470   0.76890   Biso      1.000     O          -0.531119           
         O29       1.0000    0.81000   0.66380   0.73430   Biso      1.000     O          -0.637356           
         O30       1.0000    0.95740   0.65720   0.75710   Biso      1.000     O          -0.668851           
         O31       1.0000    0.59480   0.06230   0.62240   Biso      1.000     O          -0.531276           
         O32       1.0000    0.74240   0.04130   0.63560   Biso      1.000     O          -0.675749           
         O33       1.0000    0.86430   0.53470   0.85730   Biso      1.000     O          -0.561851           
         O34       1.0000    0.47080   0.49630   0.25180   Biso      1.000     O          -0.644821           
         O35       1.0000    0.54260   0.15720   0.75710   Biso      1.000     O          -0.66885  
         O36       1.0000    0.41110   0.43470   0.76890   Biso      1.000     O          -0.531119           
         O37       1.0000    0.52920   0.50370   0.74820   Biso      1.000     O          -0.644821           
         O38       1.0000    0.76010   0.03030   0.79520   Biso      1.000     O          -0.649853           
         O39       1.0000    0.63570   0.03470   0.85730   Biso      1.000     O          -0.561851           
         O40       1.0000    0.45740   0.84280   0.24290   Biso      1.000     O          -0.668851           
         O41       1.0000    0.31000   0.83620   0.26570   Biso      1.000     O          -0.637356           
         O42       1.0000    0.58890   0.56530   0.23110   Biso      1.000     O          -0.531119           
         O43       1.0000    0.59480   0.43770   0.12240   Biso      1.000     O          -0.531276           
         O44       1.0000    0.74240   0.45870   0.13560   Biso      1.000     O          -0.675749           
         O45       1.0000    0.86430   0.96530   0.35730   Biso      1.000     O          -0.561851           
         O46       1.0000    0.90520   0.56230   0.62240   Biso      1.000     O          -0.531275           
         O47       1.0000    0.63570   0.46530   0.35730   Biso      1.000     O          -0.561851           
         O48       1.0000    0.76010   0.46970   0.29520   Biso      1.000     O          -0.649853           
         O49       1.0000    0.52920   0.99630   0.24820   Biso      1.000     O          -0.644821           
         O50       1.0000    0.41110   0.06530   0.26890   Biso      1.000     O          -0.531119           
         O51       1.0000    0.69000   0.33620   0.23430   Biso      1.000     O          -0.637356           
         O52       1.0000    0.90520   0.93770   0.12240   Biso      1.000     O          -0.531276           
         O53       1.0000    0.36430   0.53470   0.64270   Biso      1.000     O          -0.561851           
         O54       1.0000    0.09480   0.43770   0.37760   Biso      1.000     O          -0.531276           
         O55       1.0000    0.24240   0.45870   0.36440   Biso      1.000     O          -0.675749           
         O56       1.0000    0.36430   0.96530   0.14270   Biso      1.000     O          -0.561851           
         O57       1.0000    0.23990   0.96970   0.20480   Biso      1.000     O          -0.649853           
         O58       1.0000    0.95740   0.84280   0.25710   Biso      1.000     O          -0.668851           
         O59       1.0000    0.81000   0.83620   0.23430   Biso      1.000     O          -0.637356           
         O60       1.0000    0.08890   0.56530   0.26890   Biso      1.000     O          -0.531119           
         O61       1.0000    0.97080   0.49630   0.24820   Biso      1.000     O          -0.644821           
         O62       1.0000    0.73990   0.96970   0.29520   Biso      1.000     O          -0.649853           
         O63       1.0000    0.23990   0.53030   0.70480   Biso      1.000     O          -0.649853           
         O64       1.0000    0.69000   0.16380   0.73430   Biso      1.000     O          -0.637356           
         S1        1.0000    0.72010   0.98941   0.98796   Biso      1.000     S          0.115371  
         S2        1.0000    0.00600   0.30573   0.74050   Biso      1.000     S          0.092092  
         S3        1.0000    0.72010   0.51059   0.48796   Biso      1.000     S          0.115369  
         S4        1.0000    0.50600   0.19427   0.25950   Biso      1.000     S          0.092097  
         S5        1.0000    0.77990   0.48941   0.98796   Biso      1.000     S          0.115372  
         S6        1.0000    0.99400   0.80573   0.75950   Biso      1.000     S          0.092092  
         S7        1.0000    0.49400   0.69427   0.24050   Biso      1.000     S          0.092093  
         S8        1.0000    0.50600   0.30573   0.75950   Biso      1.000     S          0.092097  
         S9        1.0000    0.77990   0.01059   0.48796   Biso      1.000     S          0.115372  
         S10       1.0000    0.99400   0.69427   0.25950   Biso      1.000     S          0.092097  
         S11       1.0000    0.27990   0.48941   0.51204   Biso      1.000     S          0.115371  
         S12       1.0000    0.49400   0.80573   0.74050   Biso      1.000     S          0.092097  
         S13       1.0000    0.22010   0.51059   0.01204   Biso      1.000     S          0.115372  
         S14       1.0000    0.00600   0.19427   0.24050   Biso      1.000     S          0.092098  
         S15       1.0000    0.22010   0.98941   0.51204   Biso      1.000     S          0.115369  
         S16       1.0000    0.27990   0.01059   0.01204   Biso      1.000     S          0.115372 