
##########################################################################
#               Crystallographic Information Format file
#               Produced by PyCifRW module
#
#  This is a CIF file.  CIF has been adopted by the International
#  Union of Crystallography as the standard for data archiving and
#  transmission.
#
#  For information on this file format, follow the CIF links at
#  http://www.iucr.org
##########################################################################

data_image0

_cell_length_a                          17.129
_cell_length_b                          6.6284
_cell_length_c                          12.1816
_cell_angle_alpha                       90
_cell_angle_beta                        90
_cell_angle_gamma                       90
_symmetry_space_group_name_H-M          'P 1'
_symmetry_int_tables_number             1
loop_
  _symmetry_equiv_pos_as_xyz
         'x, y, z' 
loop_
  _atom_site_label
  _atom_site_occupancy
  _atom_site_fract_x
  _atom_site_fract_y
  _atom_site_fract_z
  _atom_site_thermal_displace_type
  _atom_site_B_iso_or_equiv
  _atom_site_type_symbol
  _atom_site_charge
         Al1       1.0000    0.00184   0.00815   0.99891   Biso      1.000     Al          1.724763  
         Al2       1.0000    0.50246   0.00700   0.49631   Biso      1.000     Al          1.7262520000000001  
         Al3       1.0000    0.00180   0.50804   0.99628   Biso      1.000     Al          1.726521  
         Al4       1.0000    0.50149   0.50826   0.49995   Biso      1.000     Al          1.72627   
         C1        1.0000    0.09648   0.25525   0.85941   Biso      1.000     C          0.6382329999999999  
         C2        1.0000    0.20191   0.43507   0.75039   Biso      1.000     C          -0.096113           
         C3        1.0000    0.80956   0.25497   0.83393   Biso      1.000     C          -0.030948000000000003         
         C4        1.0000    0.66547   0.25545   0.71300   Biso      1.000     C          -0.033285           
         C5        1.0000    0.77155   0.07344   0.80614   Biso      1.000     C          -0.097746           
         C6        1.0000    0.70097   0.07362   0.74645   Biso      1.000     C          -0.099098           
         C7        1.0000    0.19073   0.75512   0.16757   Biso      1.000     C          -0.033348           
         C8        1.0000    0.27313   0.43452   0.69225   Biso      1.000     C          -0.097771           
         C9        1.0000    0.88710   0.25546   0.89295   Biso      1.000     C          0.633977  
         C10       1.0000    0.59727   0.25599   0.63482   Biso      1.000     C          0.638592  
         C11       1.0000    0.72994   0.93450   0.30253   Biso      1.000     C          -0.096076           
         C12       1.0000    0.80090   0.93487   0.24420   Biso      1.000     C          -0.09742999999999999          
         C13       1.0000    0.16579   0.25390   0.78301   Biso      1.000     C          -0.035421           
         C14       1.0000    0.31116   0.25317   0.66510   Biso      1.000     C          -0.030674           
         C15       1.0000    0.80087   0.57158   0.24361   Biso      1.000     C          -0.096748           
         C16       1.0000    0.72987   0.57114   0.30225   Biso      1.000     C          -0.100034           
         C17       1.0000    0.29926   0.57338   0.25488   Biso      1.000     C          -0.09732400000000001          
         C18       1.0000    0.90602   0.75505   0.13439   Biso      1.000     C          0.6350520000000001  
         C19       1.0000    0.33504   0.75518   0.28738   Biso      1.000     C          -0.031856           
         C20       1.0000    0.22872   0.93670   0.19502   Biso      1.000     C          -0.098037           
         C21       1.0000    0.29944   0.93681   0.25417   Biso      1.000     C          -0.097067           
         C22       1.0000    0.11410   0.75578   0.10647   Biso      1.000     C          0.63798   
         C23       1.0000    0.40499   0.75581   0.36276   Biso      1.000     C          0.634914  
         C24       1.0000    0.22857   0.57340   0.19548   Biso      1.000     C          -0.098339           
         C25       1.0000    0.69136   0.75312   0.32891   Biso      1.000     C          -0.032951           
         C26       1.0000    0.38857   0.25366   0.60574   Biso      1.000     C          0.634995  
         C27       1.0000    0.20192   0.07178   0.75098   Biso      1.000     C          -0.097978           
         C28       1.0000    0.83658   0.75367   0.21089   Biso      1.000     C          -0.033714999999999995         
         C29       1.0000    0.61417   0.75373   0.38894   Biso      1.000     C          0.637599  
         C30       1.0000    0.77142   0.43670   0.80673   Biso      1.000     C          -0.09723  
         C31       1.0000    0.70082   0.43685   0.74719   Biso      1.000     C          -0.09893099999999999          
         C32       1.0000    0.27318   0.07140   0.69256   Biso      1.000     C          -0.09957  
         H1        1.0000    0.29897   0.57742   0.66955   Biso      1.000     H          0.11897999999999999           
         H2        1.0000    0.32534   0.43037   0.27655   Biso      1.000     H          0.119387  
         H3        1.0000    0.20314   0.43077   0.17175   Biso      1.000     H          0.118529  
         H4        1.0000    0.17617   0.57802   0.77264   Biso      1.000     H          0.117717  
         H5        1.0000    0.99965   0.76007   0.86745   Biso      1.000     H          0.448637  
         H6        1.0000    0.79674   0.57957   0.83025   Biso      1.000     H          0.119527  
         H7        1.0000    0.50215   0.76047   0.62887   Biso      1.000     H          0.448762  
         H8        1.0000    0.20344   0.07928   0.17100   Biso      1.000     H          0.118559  
         H9        1.0000    0.32573   0.07955   0.27542   Biso      1.000     H          0.119376  
         H10       1.0000    0.51416   0.26019   0.36979   Biso      1.000     H          0.44678   
         H11       1.0000    0.29906   0.92886   0.67006   Biso      1.000     H          0.120071  
         H12       1.0000    0.17610   0.92868   0.77357   Biso      1.000     H          0.118432  
         H13       1.0000    0.01841   0.26004   0.12543   Biso      1.000     H          0.44719799999999993           
         H14       1.0000    0.79709   0.93047   0.82929   Biso      1.000     H          0.119559  
         H15       1.0000    0.70477   0.42860   0.32652   Biso      1.000     H          0.119452  
         H16       1.0000    0.82731   0.42877   0.22221   Biso      1.000     H          0.11921500000000002           
         H17       1.0000    0.67514   0.93071   0.72384   Biso      1.000     H          0.11830299999999999           
         H18       1.0000    0.70489   0.07746   0.32704   Biso      1.000     H          0.118     
         H19       1.0000    0.82734   0.07745   0.22321   Biso      1.000     H          0.11926300000000001           
         H20       1.0000    0.67486   0.57972   0.72493   Biso      1.000     H          0.118256  
         O1        1.0000    0.50121   0.75932   0.55804   Biso      1.000     O          -1.046866           
         O2        1.0000    0.00901   0.25908   0.05589   Biso      1.000     O          -1.045752           
         O3        1.0000    0.08295   0.92756   0.08189   Biso      1.000     O          -0.605326           
         O4        1.0000    0.00033   0.75904   0.93824   Biso      1.000     O          -1.046622           
         O5        1.0000    0.43312   0.92799   0.39387   Biso      1.000     O          -0.605617           
         O6        1.0000    0.41958   0.08310   0.57835   Biso      1.000     O          -0.602398           
         O7        1.0000    0.07025   0.08486   0.89497   Biso      1.000     O          -0.603398           
         O8        1.0000    0.91868   0.42746   0.91654   Biso      1.000     O          -0.604245           
         O9        1.0000    0.56964   0.42801   0.60310   Biso      1.000     O          -0.607224           
         O10       1.0000    0.58352   0.58315   0.41688   Biso      1.000     O          -0.602952           
         O11       1.0000    0.50752   0.25915   0.43997   Biso      1.000     O          -1.045971           
         O12       1.0000    0.93250   0.58439   0.09914   Biso      1.000     O          -0.603223           
         O13       1.0000    0.57171   0.08591   0.59858   Biso      1.000     O          -0.602504           
         O14       1.0000    0.58293   0.92635   0.41246   Biso      1.000     O          -0.6088020000000001           
         O15       1.0000    0.93337   0.92749   0.10242   Biso      1.000     O          -0.6056   
         O16       1.0000    0.08348   0.58500   0.07900   Biso      1.000     O          -0.604805           
         O17       1.0000    0.41998   0.42618   0.58233   Biso      1.000     O          -0.606949           
         O18       1.0000    0.06916   0.42744   0.89141   Biso      1.000     O          -0.606988           
         O19       1.0000    0.91829   0.08423   0.91904   Biso      1.000     O          -0.603422           
         O20       1.0000    0.43136   0.58522   0.39797   Biso      1.000     O          -0.602793 