
##########################################################################
#               Crystallographic Information Format file
#               Produced by PyCifRW module
#
#  This is a CIF file.  CIF has been adopted by the International
#  Union of Crystallography as the standard for data archiving and
#  transmission.
#
#  For information on this file format, follow the CIF links at
#  http://www.iucr.org
##########################################################################

data_image0

_cell_length_a                          10.599
_cell_length_b                          10.681
_cell_length_c                          11.424
_cell_angle_alpha                       82.67
_cell_angle_beta                        74.14
_cell_angle_gamma                       69.32
_symmetry_space_group_name_H-M          'P 1'
_symmetry_int_tables_number             1
loop_
  _symmetry_equiv_pos_as_xyz
         'x, y, z' 
loop_
  _atom_site_label
  _atom_site_occupancy
  _atom_site_fract_x
  _atom_site_fract_y
  _atom_site_fract_z
  _atom_site_thermal_displace_type
  _atom_site_B_iso_or_equiv
  _atom_site_type_symbol
  _atom_site_charge
         C1        1.0000    0.65070   0.42660   0.18540   Biso      1.000     C          0.587059  
         C2        1.0000    0.77760   0.43810   0.96500   Biso      1.000     C          -0.091124           
         C3        1.0000    0.78250   0.40550   0.08630   Biso      1.000     C          0.011311  
         C4        1.0000    0.91090   0.34740   0.11540   Biso      1.000     C          -0.13046300000000002          
         C5        1.0000    0.03070   0.32410   0.02220   Biso      1.000     C          0.061285  
         C6        1.0000    0.02800   0.35530   0.90180   Biso      1.000     C          -0.132205           
         C7        1.0000    0.89470   0.44950   0.74330   Biso      1.000     C          0.651004  
         C8        1.0000    0.34930   0.57340   0.81460   Biso      1.000     C          0.58706   
         C9        1.0000    0.72000   0.14170   0.59500   Biso      1.000     C          -0.006552           
         C10       1.0000    0.72420   0.01570   0.56860   Biso      1.000     C          -0.088193           
         C11       1.0000    0.83080   0.90160   0.58860   Biso      1.000     C          -0.007682           
         C12       1.0000    0.93520   0.91170   0.63570   Biso      1.000     C          -0.14316700000000002          
         C13       1.0000    0.92600   0.03620   0.66460   Biso      1.000     C          0.070752  
         C14       1.0000    0.82220   0.15210   0.64450   Biso      1.000     C          -0.12573299999999998          
         C15       1.0000    0.60900   0.26480   0.56430   Biso      1.000     C          0.694583  
         C16       1.0000    0.83920   0.76490   0.55980   Biso      1.000     C          0.645117  
         C17       1.0000    0.10100   0.58630   0.12610   Biso      1.000     C          -0.016782           
         C18       1.0000    0.22240   0.56190   0.03500   Biso      1.000     C          -0.091125           
         C19       1.0000    0.21750   0.59450   0.91370   Biso      1.000     C          0.011311  
         C20       1.0000    0.08910   0.65260   0.88460   Biso      1.000     C          -0.130464           
         C21       1.0000    0.96930   0.67590   0.97780   Biso      1.000     C          0.061284000000000005          
         C22       1.0000    0.97200   0.64470   0.09820   Biso      1.000     C          -0.132203           
         C23       1.0000    0.89900   0.41370   0.87390   Biso      1.000     C          -0.016782           
         C24       1.0000    0.16080   0.23510   0.44020   Biso      1.000     C          0.6451180000000001  
         C25       1.0000    0.10530   0.55050   0.25670   Biso      1.000     C          0.651003  
         C26       1.0000    0.17780   0.84790   0.35550   Biso      1.000     C          -0.12574200000000002          
         C27       1.0000    0.07400   0.96380   0.33540   Biso      1.000     C          0.070744  
         C28       1.0000    0.06480   0.08830   0.36430   Biso      1.000     C          -0.143163           
         C29       1.0000    0.16920   0.09840   0.41140   Biso      1.000     C          -0.007684999999999999         
         C30       1.0000    0.27580   0.98430   0.43140   Biso      1.000     C          -0.088193           
         C31       1.0000    0.39100   0.73520   0.43570   Biso      1.000     C          0.6945819999999999  
         C32       1.0000    0.28000   0.85830   0.40500   Biso      1.000     C          -0.006553           
         Cu1       1.0000    0.00000   0.50000   0.50000   Biso      1.000     Cu          0.875424  
         H1        1.0000    0.08420   0.67530   0.80430   Biso      1.000     H          0.140799  
         H2        1.0000    0.30790   0.52350   0.05460   Biso      1.000     H          0.139513  
         H3        1.0000    0.82040   0.23500   0.66350   Biso      1.000     H          0.137732  
         H4        1.0000    0.00900   0.83610   0.64730   Biso      1.000     H          0.139981  
         H5        1.0000    0.65480   0.00870   0.53730   Biso      1.000     H          0.139434  
         H6        1.0000    0.17960   0.76500   0.33650   Biso      1.000     H          0.13773   
         H7        1.0000    0.88990   0.66210   0.15920   Biso      1.000     H          0.142145  
         H8        1.0000    0.91580   0.32470   0.19570   Biso      1.000     H          0.140798  
         H9        1.0000    0.69210   0.47650   0.94540   Biso      1.000     H          0.139513  
         H10       1.0000    0.11010   0.33790   0.84080   Biso      1.000     H          0.142147  
         H11       1.0000    0.99100   0.16390   0.35270   Biso      1.000     H          0.13998   
         H12       1.0000    0.34520   0.99130   0.46270   Biso      1.000     H          0.139432  
         N1        1.0000    0.96270   0.95630   0.28500   Biso      1.000     N          0.527285  
         N2        1.0000    0.16760   0.26520   0.05100   Biso      1.000     N          0.531755  
         N3        1.0000    0.83240   0.73480   0.94900   Biso      1.000     N          0.5317569999999999  
         N4        1.0000    0.03730   0.04370   0.71500   Biso      1.000     N          0.527289  
         O1        1.0000    0.78110   0.48530   0.71640   Biso      1.000     O          -0.7394310000000001           
         O2        1.0000    0.52910   0.24700   0.50900   Biso      1.000     O          -0.673734           
         O3        1.0000    0.95660   0.84760   0.27470   Biso      1.000     O          -0.32013  
         O4        1.0000    0.87760   0.06020   0.26040   Biso      1.000     O          -0.342748           
         O5        1.0000    0.04080   0.32150   0.45520   Biso      1.000     O          -0.528695           
         O6        1.0000    0.26750   0.25440   0.44750   Biso      1.000     O          -0.705633           
         O7        1.0000    0.47090   0.75300   0.49100   Biso      1.000     O          -0.6737380000000001           
         O8        1.0000    0.39700   0.62390   0.40860   Biso      1.000     O          -0.715205           
         O9        1.0000    0.00800   0.43960   0.66780   Biso      1.000     O          -0.513013           
         O10       1.0000    0.53590   0.47780   0.15970   Biso      1.000     O          -0.614777           
         O11       1.0000    0.27050   0.23980   0.96710   Biso      1.000     O          -0.328838           
         O12       1.0000    0.17120   0.25130   0.15740   Biso      1.000     O          -0.35189699999999996          
         O13       1.0000    0.60300   0.37610   0.59140   Biso      1.000     O          -0.7152029999999999           
         O14       1.0000    0.72950   0.76020   0.03290   Biso      1.000     O          -0.328826           
         O15       1.0000    0.33830   0.61350   0.70730   Biso      1.000     O          -0.6665840000000001           
         O16       1.0000    0.46410   0.52220   0.84030   Biso      1.000     O          -0.614775           
         O17       1.0000    0.21890   0.51470   0.28360   Biso      1.000     O          -0.7394310000000001           
         O18       1.0000    0.99200   0.56040   0.33220   Biso      1.000     O          -0.513015           
         O19       1.0000    0.04340   0.15240   0.72530   Biso      1.000     O          -0.320132           
         O20       1.0000    0.12240   0.93980   0.73960   Biso      1.000     O          -0.34274299999999996          
         O21       1.0000    0.95920   0.67850   0.54480   Biso      1.000     O          -0.528694           
         O22       1.0000    0.73250   0.74560   0.55250   Biso      1.000     O          -0.705631           
         O23       1.0000    0.66170   0.38650   0.29270   Biso      1.000     O          -0.666586           
         O24       1.0000    0.82880   0.74870   0.84260   Biso      1.000     O          -0.35189499999999996          
         Pr1       1.0000    0.58905   0.59790   0.62865   Biso      1.000     Pr          2.185126  
         Pr2       1.0000    0.41095   0.40210   0.37135   Biso      1.000     Pr          2.185114 