
##########################################################################
#               Crystallographic Information Format file
#               Produced by PyCifRW module
#
#  This is a CIF file.  CIF has been adopted by the International
#  Union of Crystallography as the standard for data archiving and
#  transmission.
#
#  For information on this file format, follow the CIF links at
#  http://www.iucr.org
##########################################################################

data_image0

_cell_length_a                          6.576
_cell_length_b                          7.612
_cell_length_c                          10.4726
_cell_angle_alpha                       111.311
_cell_angle_beta                        103.248
_cell_angle_gamma                       90
_symmetry_space_group_name_H-M          'P 1'
_symmetry_int_tables_number             1
loop_
  _symmetry_equiv_pos_as_xyz
         'x, y, z' 
loop_
  _atom_site_label
  _atom_site_occupancy
  _atom_site_fract_x
  _atom_site_fract_y
  _atom_site_fract_z
  _atom_site_thermal_displace_type
  _atom_site_B_iso_or_equiv
  _atom_site_type_symbol
  _atom_site_charge
         Al1       1.0000    0.00100   0.00120   0.00240   Biso      1.000     Al          1.670288  
         Al2       1.0000    0.50100   0.00120   0.00240   Biso      1.000     Al          1.654073  
         C1        1.0000    0.41000   0.40760   0.35920   Biso      1.000     C          -0.057031           
         C2        1.0000    0.57800   0.60720   0.63640   Biso      1.000     C          -0.020999           
         C3        1.0000    0.71200   0.57440   0.55080   Biso      1.000     C          -0.090258           
         C4        1.0000    0.28100   0.42560   0.45120   Biso      1.000     C          -0.078165           
         C5        1.0000    0.63000   0.44560   0.40720   Biso      1.000     C          -0.081956           
         C6        1.0000    0.33500   0.28140   0.21280   Biso      1.000     C          0.667231  
         C7        1.0000    0.66000   0.71450   0.78700   Biso      1.000     C          0.641109  
         C8        1.0000    0.37100   0.52280   0.59960   Biso      1.000     C          -0.102126           
         C9        1.0000    0.07800   0.02920   0.63640   Biso      1.000     C          -0.021211           
         C10       1.0000    0.21200   0.97640   0.55080   Biso      1.000     C          -0.094714           
         C11       1.0000    0.78100   0.02560   0.45120   Biso      1.000     C          -0.083252           
         C12       1.0000    0.13000   0.96160   0.40720   Biso      1.000     C          -0.085998           
         C13       1.0000    0.87100   0.07680   0.59960   Biso      1.000     C          -0.106216           
         C14       1.0000    0.83500   0.93140   0.21280   Biso      1.000     C          0.654048  
         C15       1.0000    0.16000   0.07250   0.78700   Biso      1.000     C          0.636022  
         C16       1.0000    0.91000   0.95160   0.35920   Biso      1.000     C          -0.054887           
         H1        1.0000    0.24164   0.95842   0.33779   Biso      1.000     H          0.122565  
         H2        1.0000    0.88030   0.64192   0.58640   Biso      1.000     H          0.120442  
         H3        1.0000    0.10939   0.36612   0.41200   Biso      1.000     H          0.111952  
         H4        1.0000    0.74164   0.37938   0.33779   Biso      1.000     H          0.115906  
         H5        1.0000    0.27599   0.52812   0.67912   Biso      1.000     H          0.122531  
         H6        1.0000    0.38030   0.94449   0.58640   Biso      1.000     H          0.1211    
         H7        1.0000    0.60939   0.04588   0.41200   Biso      1.000     H          0.112913  
         H8        1.0000    0.77599   0.15100   0.67912   Biso      1.000     H          0.128992  
         H9        1.0000    0.25600   0.74899   0.96275   Biso      1.000     H          0.437978  
         H10       1.0000    0.75600   0.25101   0.03725   Biso      1.000     H          0.434464  
         O1        1.0000    0.13700   0.23440   0.16880   Biso      1.000     O          -0.626464           
         O2        1.0000    0.44000   0.24250   0.12500   Biso      1.000     O          -0.613261           
         O3        1.0000    0.55100   0.76320   0.87240   Biso      1.000     O          -0.596941           
         O4        1.0000    0.75600   0.11000   0.00000   Biso      1.000     O          -0.981994           
         O5        1.0000    0.63700   0.93440   0.16880   Biso      1.000     O          -0.627601           
         O6        1.0000    0.34000   0.00760   0.81720   Biso      1.000     O          -0.623952           
         O7        1.0000    0.94000   0.88250   0.12500   Biso      1.000     O          -0.611991           
         O8        1.0000    0.05100   0.10920   0.87240   Biso      1.000     O          -0.593788           
         O9        1.0000    0.84000   0.80960   0.81720   Biso      1.000     O          -0.611947           
         O10       1.0000    0.25600   0.89000   0.00000   Biso      1.000     O          -0.986863 