
##########################################################################
#               Crystallographic Information Format file
#               Produced by PyCifRW module
#
#  This is a CIF file.  CIF has been adopted by the International
#  Union of Crystallography as the standard for data archiving and
#  transmission.
#
#  For information on this file format, follow the CIF links at
#  http://www.iucr.org
##########################################################################

data_image0

_cell_length_a                          10.425
_cell_length_b                          10.62
_cell_length_c                          11.323
_cell_angle_alpha                       83.41
_cell_angle_beta                        74.96
_cell_angle_gamma                       69.67
_symmetry_space_group_name_H-M          'P 1'
_symmetry_int_tables_number             1
loop_
  _symmetry_equiv_pos_as_xyz
         'x, y, z' 
loop_
  _atom_site_label
  _atom_site_occupancy
  _atom_site_fract_x
  _atom_site_fract_y
  _atom_site_fract_z
  _atom_site_thermal_displace_type
  _atom_site_B_iso_or_equiv
  _atom_site_type_symbol
  _atom_site_charge
         C1        1.0000    0.28210   0.97800   0.43140   Biso      1.000     C          -0.08603  
         C2        1.0000    0.90990   0.34940   0.11890   Biso      1.000     C          -0.129801           
         C3        1.0000    0.77930   0.40990   0.09050   Biso      1.000     C          0.013526  
         C4        1.0000    0.88790   0.45540   0.74640   Biso      1.000     C          0.655783  
         C5        1.0000    0.77180   0.44390   0.96950   Biso      1.000     C          -0.090182           
         C6        1.0000    0.89430   0.41820   0.87660   Biso      1.000     C          -0.019233           
         C7        1.0000    0.17120   0.23180   0.43710   Biso      1.000     C          0.6585    
         C8        1.0000    0.39190   0.72720   0.43730   Biso      1.000     C          0.706409  
         C9        1.0000    0.64800   0.43040   0.18990   Biso      1.000     C          0.584884  
         C10       1.0000    0.17750   0.84390   0.35530   Biso      1.000     C          -0.124951           
         C11       1.0000    0.07320   0.96200   0.33540   Biso      1.000     C          0.070414  
         C12       1.0000    0.35200   0.56960   0.81010   Biso      1.000     C          0.584883  
         C13       1.0000    0.06780   0.08670   0.36380   Biso      1.000     C          -0.142324           
         C14       1.0000    0.17550   0.09500   0.41080   Biso      1.000     C          -0.008782           
         C15       1.0000    0.71860   0.14720   0.59400   Biso      1.000     C          -0.007994           
         C16       1.0000    0.02470   0.35710   0.90460   Biso      1.000     C          -0.137458           
         C17       1.0000    0.02820   0.32510   0.02460   Biso      1.000     C          0.065154  
         C18       1.0000    0.71790   0.02200   0.56860   Biso      1.000     C          -0.085944           
         C19       1.0000    0.82450   0.90500   0.58920   Biso      1.000     C          -0.008744           
         C20       1.0000    0.93220   0.91330   0.63620   Biso      1.000     C          -0.142292           
         C21       1.0000    0.92680   0.03800   0.66460   Biso      1.000     C          0.070419  
         C22       1.0000    0.82250   0.15610   0.64470   Biso      1.000     C          -0.124914           
         C23       1.0000    0.60810   0.27280   0.56270   Biso      1.000     C          0.706411  
         C24       1.0000    0.82880   0.76820   0.56290   Biso      1.000     C          0.658512  
         C25       1.0000    0.10570   0.58180   0.12340   Biso      1.000     C          -0.019217           
         C26       1.0000    0.22820   0.55610   0.03050   Biso      1.000     C          -0.090182           
         C27       1.0000    0.22070   0.59010   0.90950   Biso      1.000     C          0.013514  
         C28       1.0000    0.09010   0.65060   0.88110   Biso      1.000     C          -0.129836           
         C29       1.0000    0.97180   0.67490   0.97540   Biso      1.000     C          0.065144  
         C30       1.0000    0.97530   0.64290   0.09540   Biso      1.000     C          -0.137404           
         C31       1.0000    0.11210   0.54460   0.25360   Biso      1.000     C          0.655788  
         C32       1.0000    0.28140   0.85280   0.40600   Biso      1.000     C          -0.008022           
         Cu1       1.0000    0.00000   0.50000   0.50000   Biso      1.000     Cu          0.887254  
         Dy1       1.0000    0.58699   0.59728   0.63175   Biso      1.000     Dy          2.129563  
         Dy2       1.0000    0.41301   0.40272   0.36825   Biso      1.000     Dy          2.129473  
         H1        1.0000    0.89270   0.66160   0.15660   Biso      1.000     H          0.1441    
         H2        1.0000    0.08320   0.67390   0.80070   Biso      1.000     H          0.143507  
         H3        1.0000    0.31540   0.51600   0.04940   Biso      1.000     H          0.144573  
         H4        1.0000    0.82220   0.23870   0.66470   Biso      1.000     H          0.13952   
         H5        1.0000    0.00590   0.83670   0.64800   Biso      1.000     H          0.138534  
         H6        1.0000    0.91680   0.32610   0.19930   Biso      1.000     H          0.143514  
         H7        1.0000    0.35430   0.98340   0.46240   Biso      1.000     H          0.142703  
         H8        1.0000    0.10730   0.33840   0.84340   Biso      1.000     H          0.144105  
         H9        1.0000    0.64570   0.01660   0.53760   Biso      1.000     H          0.142719  
         H10       1.0000    0.68460   0.48400   0.95060   Biso      1.000     H          0.144572  
         H11       1.0000    0.99410   0.16330   0.35200   Biso      1.000     H          0.138517  
         H12       1.0000    0.17780   0.76130   0.33530   Biso      1.000     H          0.139504  
         N1        1.0000    0.96020   0.95600   0.28310   Biso      1.000     N          0.518627  
         N2        1.0000    0.16920   0.26130   0.05200   Biso      1.000     N          0.528952  
         N3        1.0000    0.03980   0.04400   0.71690   Biso      1.000     N          0.518632  
         N4        1.0000    0.83080   0.73870   0.94800   Biso      1.000     N          0.528954  
         O1        1.0000    0.77080   0.49620   0.71980   Biso      1.000     O          -0.74357  
         O2        1.0000    0.87130   0.06270   0.26230   Biso      1.000     O          -0.352571           
         O3        1.0000    0.28290   0.24910   0.43960   Biso      1.000     O          -0.703454           
         O4        1.0000    0.47160   0.74170   0.49640   Biso      1.000     O          -0.668504           
         O5        1.0000    0.39660   0.61680   0.40510   Biso      1.000     O          -0.713886           
         O6        1.0000    0.94940   0.84840   0.27470   Biso      1.000     O          -0.31015  
         O7        1.0000    0.00290   0.44110   0.66950   Biso      1.000     O          -0.513871           
         O8        1.0000    0.05140   0.31870   0.45450   Biso      1.000     O          -0.532663           
         O9        1.0000    0.52900   0.48140   0.16490   Biso      1.000     O          -0.616924           
         O10       1.0000    0.05060   0.15160   0.72530   Biso      1.000     O          -0.309898           
         O11       1.0000    0.65830   0.39120   0.29780   Biso      1.000     O          -0.655202           
         O12       1.0000    0.12870   0.93730   0.73770   Biso      1.000     O          -0.352273           
         O13       1.0000    0.52840   0.25830   0.50360   Biso      1.000     O          -0.668466           
         O14       1.0000    0.27110   0.23410   0.96790   Biso      1.000     O          -0.31841  
         O15       1.0000    0.71710   0.75090   0.56040   Biso      1.000     O          -0.703446           
         O16       1.0000    0.94860   0.68130   0.54550   Biso      1.000     O          -0.532647           
         O17       1.0000    0.72890   0.76590   0.03210   Biso      1.000     O          -0.318415           
         O18       1.0000    0.82400   0.75230   0.84120   Biso      1.000     O          -0.35281  
         O19       1.0000    0.34170   0.60880   0.70220   Biso      1.000     O          -0.655213           
         O20       1.0000    0.47100   0.51860   0.83510   Biso      1.000     O          -0.616915           
         O21       1.0000    0.22920   0.50380   0.28020   Biso      1.000     O          -0.743564           
         O22       1.0000    0.99710   0.55890   0.33050   Biso      1.000     O          -0.513853           
         O23       1.0000    0.60340   0.38320   0.59490   Biso      1.000     O          -0.713881           
         O24       1.0000    0.17600   0.24770   0.15880   Biso      1.000     O          -0.352767 