
##########################################################################
#               Crystallographic Information Format file
#               Produced by PyCifRW module
#
#  This is a CIF file.  CIF has been adopted by the International
#  Union of Crystallography as the standard for data archiving and
#  transmission.
#
#  For information on this file format, follow the CIF links at
#  http://www.iucr.org
##########################################################################

data_image0

_cell_length_a                          10.445
_cell_length_b                          10.636
_cell_length_c                          11.326
_cell_angle_alpha                       83.28
_cell_angle_beta                        74.83
_cell_angle_gamma                       69.6
_symmetry_space_group_name_H-M          'P 1'
_symmetry_int_tables_number             1
loop_
  _symmetry_equiv_pos_as_xyz
         'x, y, z' 
loop_
  _atom_site_label
  _atom_site_occupancy
  _atom_site_fract_x
  _atom_site_fract_y
  _atom_site_fract_z
  _atom_site_thermal_displace_type
  _atom_site_B_iso_or_equiv
  _atom_site_type_symbol
  _atom_site_charge
         C1        1.0000    0.64780   0.43090   0.18910   Biso      1.000     C          0.586384  
         C2        1.0000    0.77270   0.44340   0.96850   Biso      1.000     C          -0.091047           
         C3        1.0000    0.77970   0.40970   0.09030   Biso      1.000     C          0.010937  
         C4        1.0000    0.90990   0.34920   0.11870   Biso      1.000     C          -0.128364           
         C5        1.0000    0.02990   0.32460   0.02450   Biso      1.000     C          0.062285  
         C6        1.0000    0.02550   0.35630   0.90430   Biso      1.000     C          -0.135256           
         C7        1.0000    0.88960   0.45370   0.74580   Biso      1.000     C          0.659229  
         C8        1.0000    0.35220   0.56910   0.81090   Biso      1.000     C          0.586384  
         C9        1.0000    0.71850   0.14650   0.59380   Biso      1.000     C          -0.008156           
         C10       1.0000    0.71870   0.02070   0.56860   Biso      1.000     C          -0.089943           
         C11       1.0000    0.82500   0.90430   0.58930   Biso      1.000     C          -0.007008           
         C12       1.0000    0.93260   0.91360   0.63550   Biso      1.000     C          -0.14377  
         C13       1.0000    0.92670   0.03770   0.66430   Biso      1.000     C          0.070656  
         C14       1.0000    0.82310   0.15540   0.64430   Biso      1.000     C          -0.123576           
         C15       1.0000    0.60890   0.27100   0.56220   Biso      1.000     C          0.706092  
         C16       1.0000    0.82940   0.76830   0.56280   Biso      1.000     C          0.654897  
         C17       1.0000    0.10500   0.58270   0.12360   Biso      1.000     C          -0.01941  
         C18       1.0000    0.22730   0.55660   0.03150   Biso      1.000     C          -0.091047           
         C19       1.0000    0.22030   0.59030   0.90970   Biso      1.000     C          0.010937  
         C20       1.0000    0.09010   0.65080   0.88130   Biso      1.000     C          -0.128364           
         C21       1.0000    0.97010   0.67540   0.97550   Biso      1.000     C          0.062283  
         C22       1.0000    0.97450   0.64370   0.09570   Biso      1.000     C          -0.135257           
         C23       1.0000    0.89500   0.41730   0.87640   Biso      1.000     C          -0.019409           
         C24       1.0000    0.17060   0.23170   0.43720   Biso      1.000     C          0.654898  
         C25       1.0000    0.11040   0.54630   0.25420   Biso      1.000     C          0.659231  
         C26       1.0000    0.17690   0.84460   0.35570   Biso      1.000     C          -0.123578           
         C27       1.0000    0.07330   0.96230   0.33570   Biso      1.000     C          0.070655  
         C28       1.0000    0.06740   0.08640   0.36450   Biso      1.000     C          -0.143767           
         C29       1.0000    0.17500   0.09570   0.41070   Biso      1.000     C          -0.00701  
         C30       1.0000    0.28130   0.97930   0.43140   Biso      1.000     C          -0.089942           
         C31       1.0000    0.39110   0.72900   0.43780   Biso      1.000     C          0.706094  
         C32       1.0000    0.28150   0.85350   0.40620   Biso      1.000     C          -0.008158           
         Cu1       1.0000    0.00000   0.50000   0.50000   Biso      1.000     Cu          0.890023  
         H1        1.0000    0.08390   0.67410   0.80080   Biso      1.000     H          0.141826  
         H2        1.0000    0.31420   0.51650   0.05080   Biso      1.000     H          0.145162  
         H3        1.0000    0.82320   0.23790   0.66380   Biso      1.000     H          0.139117  
         H4        1.0000    0.00680   0.83730   0.64670   Biso      1.000     H          0.138214  
         H5        1.0000    0.64690   0.01500   0.53770   Biso      1.000     H          0.143292  
         H6        1.0000    0.17680   0.76210   0.33620   Biso      1.000     H          0.139116  
         H7        1.0000    0.89210   0.66260   0.15720   Biso      1.000     H          0.143761  
         H8        1.0000    0.91610   0.32590   0.19920   Biso      1.000     H          0.141827  
         H9        1.0000    0.68580   0.48350   0.94920   Biso      1.000     H          0.145163  
         H10       1.0000    0.10790   0.33740   0.84280   Biso      1.000     H          0.143762  
         H11       1.0000    0.99320   0.16270   0.35330   Biso      1.000     H          0.138214  
         H12       1.0000    0.35310   0.98500   0.46230   Biso      1.000     H          0.143292  
         N1        1.0000    0.95870   0.95680   0.28540   Biso      1.000     N          0.52361   
         N2        1.0000    0.16860   0.26250   0.05260   Biso      1.000     N          0.533534  
         N3        1.0000    0.83140   0.73750   0.94740   Biso      1.000     N          0.533534  
         N4        1.0000    0.04130   0.04320   0.71460   Biso      1.000     N          0.523611  
         O1        1.0000    0.77280   0.49420   0.71900   Biso      1.000     O          -0.748706           
         O2        1.0000    0.52900   0.25620   0.50350   Biso      1.000     O          -0.669158           
         O3        1.0000    0.95090   0.84790   0.27430   Biso      1.000     O          -0.323028           
         O4        1.0000    0.87280   0.06160   0.26210   Biso      1.000     O          -0.338561           
         O5        1.0000    0.05060   0.31880   0.45440   Biso      1.000     O          -0.533618           
         O6        1.0000    0.28110   0.25040   0.44070   Biso      1.000     O          -0.7023   
         O7        1.0000    0.47100   0.74380   0.49650   Biso      1.000     O          -0.669158           
         O8        1.0000    0.39640   0.61840   0.40620   Biso      1.000     O          -0.714752           
         O9        1.0000    0.00350   0.44160   0.66950   Biso      1.000     O          -0.511568           
         O10       1.0000    0.53020   0.48200   0.16360   Biso      1.000     O          -0.612616           
         O11       1.0000    0.27150   0.23530   0.96890   Biso      1.000     O          -0.324358           
         O12       1.0000    0.17400   0.24740   0.15950   Biso      1.000     O          -0.352849           
         O13       1.0000    0.60360   0.38160   0.59380   Biso      1.000     O          -0.714752           
         O14       1.0000    0.72850   0.76470   0.03110   Biso      1.000     O          -0.324353           
         O15       1.0000    0.34180   0.60890   0.70300   Biso      1.000     O          -0.658437           
         O16       1.0000    0.46980   0.51800   0.83640   Biso      1.000     O          -0.612618           
         O17       1.0000    0.22720   0.50580   0.28100   Biso      1.000     O          -0.748709           
         O18       1.0000    0.99650   0.55840   0.33050   Biso      1.000     O          -0.511569           
         O19       1.0000    0.04910   0.15210   0.72570   Biso      1.000     O          -0.323026           
         O20       1.0000    0.12720   0.93840   0.73790   Biso      1.000     O          -0.338557           
         O21       1.0000    0.94940   0.68120   0.54560   Biso      1.000     O          -0.533618           
         O22       1.0000    0.71890   0.74960   0.55930   Biso      1.000     O          -0.702299           
         O23       1.0000    0.65820   0.39110   0.29700   Biso      1.000     O          -0.658437           
         O24       1.0000    0.82600   0.75260   0.84050   Biso      1.000     O          -0.352849           
         Tb1       1.0000    0.58736   0.59682   0.63162   Biso      1.000     Tb          2.132465  
         Tb2       1.0000    0.41264   0.40318   0.36838   Biso      1.000     Tb          2.132474 