
##########################################################################
#               Crystallographic Information Format file
#               Produced by PyCifRW module
#
#  This is a CIF file.  CIF has been adopted by the International
#  Union of Crystallography as the standard for data archiving and
#  transmission.
#
#  For information on this file format, follow the CIF links at
#  http://www.iucr.org
##########################################################################

data_image0

_cell_length_a                          10.5
_cell_length_b                          10.635
_cell_length_c                          11.373
_cell_angle_alpha                       82.98
_cell_angle_beta                        74.42
_cell_angle_gamma                       69.6
_symmetry_space_group_name_H-M          'P 1'
_symmetry_int_tables_number             1
loop_
  _symmetry_equiv_pos_as_xyz
         'x, y, z' 
loop_
  _atom_site_label
  _atom_site_occupancy
  _atom_site_fract_x
  _atom_site_fract_y
  _atom_site_fract_z
  _atom_site_thermal_displace_type
  _atom_site_B_iso_or_equiv
  _atom_site_type_symbol
  _atom_site_charge
         C1        1.0000    0.27910   0.98070   0.43140   Biso      1.000     C          -0.090926           
         C2        1.0000    0.91010   0.34790   0.11690   Biso      1.000     C          -0.131595           
         C3        1.0000    0.78120   0.40590   0.08880   Biso      1.000     C          0.005042  
         C4        1.0000    0.89020   0.45380   0.74510   Biso      1.000     C          0.615207  
         C5        1.0000    0.77500   0.44020   0.96750   Biso      1.000     C          -0.092538           
         C6        1.0000    0.89630   0.41590   0.87530   Biso      1.000     C          -0.007653           
         C7        1.0000    0.16680   0.23280   0.43900   Biso      1.000     C          0.619116  
         C8        1.0000    0.39180   0.73090   0.43590   Biso      1.000     C          0.626324  
         C9        1.0000    0.64930   0.42660   0.18800   Biso      1.000     C          0.551075  
         C10       1.0000    0.17780   0.84600   0.35440   Biso      1.000     C          -0.131663           
         C11       1.0000    0.07480   0.96180   0.33410   Biso      1.000     C          0.066368  
         C12       1.0000    0.35070   0.57340   0.81200   Biso      1.000     C          0.551085  
         C13       1.0000    0.06650   0.08780   0.36380   Biso      1.000     C          -0.150506           
         C14       1.0000    0.17320   0.09560   0.41110   Biso      1.000     C          -0.002124           
         C15       1.0000    0.71810   0.14560   0.59580   Biso      1.000     C          -0.000605           
         C16       1.0000    0.02600   0.35570   0.90290   Biso      1.000     C          -0.139608           
         C17       1.0000    0.03010   0.32380   0.02250   Biso      1.000     C          0.064994  
         C18       1.0000    0.72090   0.01930   0.56860   Biso      1.000     C          -0.090887           
         C19       1.0000    0.82680   0.90440   0.58890   Biso      1.000     C          -0.002105           
         C20       1.0000    0.93350   0.91220   0.63620   Biso      1.000     C          -0.150489           
         C21       1.0000    0.92520   0.03820   0.66590   Biso      1.000     C          0.066359  
         C22       1.0000    0.82220   0.15400   0.64560   Biso      1.000     C          -0.13164  
         C23       1.0000    0.60820   0.26910   0.56410   Biso      1.000     C          0.626339  
         C24       1.0000    0.83320   0.76720   0.56100   Biso      1.000     C          0.61913   
         C25       1.0000    0.10370   0.58410   0.12470   Biso      1.000     C          -0.007647           
         C26       1.0000    0.22500   0.55980   0.03250   Biso      1.000     C          -0.092535           
         C27       1.0000    0.21880   0.59410   0.91120   Biso      1.000     C          0.005039  
         C28       1.0000    0.08990   0.65210   0.88310   Biso      1.000     C          -0.131613           
         C29       1.0000    0.96990   0.67620   0.97750   Biso      1.000     C          0.064986  
         C30       1.0000    0.97400   0.64430   0.09710   Biso      1.000     C          -0.13958  
         C31       1.0000    0.10980   0.54620   0.25490   Biso      1.000     C          0.615217  
         C32       1.0000    0.28190   0.85440   0.40420   Biso      1.000     C          -0.000624           
         Cu1       1.0000    0.00000   0.50000   0.50000   Biso      1.000     Cu          0.99555   
         Eu1       1.0000    0.58804   0.59837   0.62980   Biso      1.000     Eu          1.397137  
         Eu2       1.0000    0.41196   0.40163   0.37020   Biso      1.000     Eu          1.397097  
         H1        1.0000    0.89180   0.66250   0.15860   Biso      1.000     H          0.146372  
         H2        1.0000    0.08400   0.67440   0.80270   Biso      1.000     H          0.136975  
         H3        1.0000    0.31150   0.52030   0.05140   Biso      1.000     H          0.140793  
         H4        1.0000    0.82190   0.23670   0.66480   Biso      1.000     H          0.135488  
         H5        1.0000    0.00730   0.83590   0.64740   Biso      1.000     H          0.138219  
         H6        1.0000    0.91600   0.32560   0.19730   Biso      1.000     H          0.136983  
         H7        1.0000    0.34920   0.98700   0.46350   Biso      1.000     H          0.143851  
         H8        1.0000    0.10820   0.33750   0.84140   Biso      1.000     H          0.14637   
         H9        1.0000    0.65080   0.01300   0.53650   Biso      1.000     H          0.143862  
         H10       1.0000    0.68850   0.47970   0.94860   Biso      1.000     H          0.140793  
         H11       1.0000    0.99270   0.16410   0.35260   Biso      1.000     H          0.138216  
         H12       1.0000    0.17810   0.76330   0.33520   Biso      1.000     H          0.135489  
         N1        1.0000    0.96170   0.95640   0.28310   Biso      1.000     N          0.530789  
         N2        1.0000    0.16900   0.26200   0.05070   Biso      1.000     N          0.531826  
         N3        1.0000    0.03830   0.04360   0.71690   Biso      1.000     N          0.530764  
         N4        1.0000    0.83100   0.73800   0.94930   Biso      1.000     N          0.531828  
         O1        1.0000    0.77460   0.49320   0.71910   Biso      1.000     O          -0.625587           
         O2        1.0000    0.87780   0.06050   0.25770   Biso      1.000     O          -0.336263           
         O3        1.0000    0.27480   0.25160   0.44570   Biso      1.000     O          -0.587761           
         O4        1.0000    0.47270   0.74570   0.49240   Biso      1.000     O          -0.569979           
         O5        1.0000    0.39700   0.62000   0.40580   Biso      1.000     O          -0.555131           
         O6        1.0000    0.95260   0.84840   0.27420   Biso      1.000     O          -0.328362           
         O7        1.0000    0.00480   0.44070   0.66870   Biso      1.000     O          -0.460931           
         O8        1.0000    0.04600   0.31930   0.45460   Biso      1.000     O          -0.487253           
         O9        1.0000    0.53270   0.47630   0.16310   Biso      1.000     O          -0.474618           
         O10       1.0000    0.04740   0.15160   0.72580   Biso      1.000     O          -0.328169           
         O11       1.0000    0.65900   0.38850   0.29650   Biso      1.000     O          -0.509339           
         O12       1.0000    0.12220   0.93950   0.74230   Biso      1.000     O          -0.336059           
         O13       1.0000    0.52730   0.25430   0.50760   Biso      1.000     O          -0.56998  
         O14       1.0000    0.27120   0.23290   0.96590   Biso      1.000     O          -0.324643           
         O15       1.0000    0.72520   0.74840   0.55430   Biso      1.000     O          -0.58774  
         O16       1.0000    0.95400   0.68070   0.54540   Biso      1.000     O          -0.487245           
         O17       1.0000    0.72880   0.76710   0.03410   Biso      1.000     O          -0.324638           
         O18       1.0000    0.82560   0.74920   0.84370   Biso      1.000     O          -0.340486           
         O19       1.0000    0.34100   0.61150   0.70350   Biso      1.000     O          -0.509389           
         O20       1.0000    0.46730   0.52370   0.83690   Biso      1.000     O          -0.474658           
         O21       1.0000    0.22540   0.50680   0.28090   Biso      1.000     O          -0.625586           
         O22       1.0000    0.99520   0.55930   0.33130   Biso      1.000     O          -0.460913           
         O23       1.0000    0.60300   0.38000   0.59420   Biso      1.000     O          -0.55515  
         O24       1.0000    0.17440   0.25080   0.15630   Biso      1.000     O          -0.340464 