
##########################################################################
#               Crystallographic Information Format file
#               Produced by PyCifRW module
#
#  This is a CIF file.  CIF has been adopted by the International
#  Union of Crystallography as the standard for data archiving and
#  transmission.
#
#  For information on this file format, follow the CIF links at
#  http://www.iucr.org
##########################################################################

data_image0

_cell_length_a                          10.546
_cell_length_b                          10.653
_cell_length_c                          11.422
_cell_angle_alpha                       82.68
_cell_angle_beta                        74.1
_cell_angle_gamma                       69.42
_symmetry_space_group_name_H-M          'P 1'
_symmetry_int_tables_number             1
loop_
  _symmetry_equiv_pos_as_xyz
         'x, y, z' 
loop_
  _atom_site_label
  _atom_site_occupancy
  _atom_site_fract_x
  _atom_site_fract_y
  _atom_site_fract_z
  _atom_site_thermal_displace_type
  _atom_site_B_iso_or_equiv
  _atom_site_type_symbol
  _atom_site_charge
         C1        1.0000    0.39180   0.73340   0.43490   Biso      1.000     C          0.697876  
         C2        1.0000    0.78180   0.40490   0.08690   Biso      1.000     C          0.009311  
         C3        1.0000    0.02700   0.35500   0.90110   Biso      1.000     C          -0.13213  
         C4        1.0000    0.77600   0.43790   0.96580   Biso      1.000     C          -0.088625           
         C5        1.0000    0.89900   0.41370   0.87380   Biso      1.000     C          -0.017968           
         C6        1.0000    0.16150   0.23460   0.44050   Biso      1.000     C          0.6492319999999999  
         C7        1.0000    0.89390   0.45060   0.74350   Biso      1.000     C          0.652055  
         C8        1.0000    0.65060   0.42530   0.18610   Biso      1.000     C          0.5868439999999999  
         C9        1.0000    0.17890   0.84660   0.35410   Biso      1.000     C          -0.125779           
         C10       1.0000    0.07440   0.96360   0.33420   Biso      1.000     C          0.06858099999999999           
         C11       1.0000    0.34940   0.57470   0.81390   Biso      1.000     C          0.586842  
         C12       1.0000    0.06590   0.08790   0.36390   Biso      1.000     C          -0.1436   
         C13       1.0000    0.17030   0.09770   0.41120   Biso      1.000     C          -0.006856999999999999         
         C14       1.0000    0.82110   0.15340   0.64590   Biso      1.000     C          -0.12578699999999998          
         C15       1.0000    0.27660   0.98340   0.43090   Biso      1.000     C          -0.08745599999999999          
         C16       1.0000    0.28060   0.85740   0.40460   Biso      1.000     C          -0.006997           
         C17       1.0000    0.92560   0.03640   0.66580   Biso      1.000     C          0.068574  
         C18       1.0000    0.93410   0.91210   0.63610   Biso      1.000     C          -0.143598           
         C19       1.0000    0.60820   0.26660   0.56510   Biso      1.000     C          0.697875  
         C20       1.0000    0.83850   0.76540   0.55950   Biso      1.000     C          0.649234  
         C21       1.0000    0.10100   0.58630   0.12620   Biso      1.000     C          -0.017972           
         C22       1.0000    0.22400   0.56210   0.03420   Biso      1.000     C          -0.088624           
         C23       1.0000    0.82970   0.90230   0.58880   Biso      1.000     C          -0.006856999999999999         
         C24       1.0000    0.21820   0.59510   0.91310   Biso      1.000     C          0.009312  
         C25       1.0000    0.08890   0.65340   0.88450   Biso      1.000     C          -0.129798           
         C26       1.0000    0.72340   0.01660   0.56910   Biso      1.000     C          -0.08745800000000001          
         C27       1.0000    0.96990   0.67630   0.97800   Biso      1.000     C          0.063797  
         C28       1.0000    0.97300   0.64500   0.09890   Biso      1.000     C          -0.132125           
         C29       1.0000    0.71940   0.14260   0.59540   Biso      1.000     C          -0.006996           
         C30       1.0000    0.10610   0.54940   0.25650   Biso      1.000     C          0.6520560000000001  
         C31       1.0000    0.91110   0.34660   0.11550   Biso      1.000     C          -0.129799           
         C32       1.0000    0.03010   0.32370   0.02200   Biso      1.000     C          0.06379800000000001           
         Cu1       1.0000    0.00000   0.50000   0.50000   Biso      1.000     Cu          0.8743040000000001  
         H1        1.0000    0.69000   0.47610   0.94650   Biso      1.000     H          0.142048  
         H2        1.0000    0.10930   0.33690   0.83980   Biso      1.000     H          0.143128  
         H3        1.0000    0.18110   0.76360   0.33450   Biso      1.000     H          0.13808099999999998           
         H4        1.0000    0.99190   0.16380   0.35260   Biso      1.000     H          0.138503  
         H5        1.0000    0.81890   0.23640   0.66550   Biso      1.000     H          0.138079  
         H6        1.0000    0.34650   0.99020   0.46210   Biso      1.000     H          0.138988  
         H7        1.0000    0.00810   0.83620   0.64740   Biso      1.000     H          0.13850099999999999           
         H8        1.0000    0.31000   0.52390   0.05350   Biso      1.000     H          0.142048  
         H9        1.0000    0.65350   0.00980   0.53790   Biso      1.000     H          0.138986  
         H10       1.0000    0.08340   0.67630   0.80430   Biso      1.000     H          0.14103   
         H11       1.0000    0.89070   0.66310   0.16020   Biso      1.000     H          0.143129  
         H12       1.0000    0.91660   0.32370   0.19570   Biso      1.000     H          0.141031  
         N1        1.0000    0.83300   0.73590   0.95000   Biso      1.000     N          0.533373  
         N2        1.0000    0.16700   0.26410   0.05000   Biso      1.000     N          0.533375  
         N3        1.0000    0.96440   0.95570   0.28330   Biso      1.000     N          0.5343    
         N4        1.0000    0.03560   0.04430   0.71670   Biso      1.000     N          0.534297  
         Nd1       1.0000    0.58900   0.59851   0.62829   Biso      1.000     Nd          2.183879  
         Nd2       1.0000    0.41100   0.40149   0.37171   Biso      1.000     Nd          2.1838889999999997  
         O1        1.0000    0.39790   0.62240   0.40690   Biso      1.000     O          -0.715018           
         O2        1.0000    0.47160   0.75110   0.49050   Biso      1.000     O          -0.676345           
         O3        1.0000    0.26770   0.25400   0.44830   Biso      1.000     O          -0.7055060000000001           
         O4        1.0000    0.04150   0.32060   0.45530   Biso      1.000     O          -0.530569           
         O5        1.0000    0.87970   0.05940   0.25800   Biso      1.000     O          -0.34728000000000003          
         O6        1.0000    0.95580   0.84780   0.27420   Biso      1.000     O          -0.322745           
         O7        1.0000    0.00720   0.43940   0.66780   Biso      1.000     O          -0.510937           
         O8        1.0000    0.77910   0.48840   0.71720   Biso      1.000     O          -0.741755           
         O9        1.0000    0.53450   0.47590   0.16120   Biso      1.000     O          -0.6152880000000001           
         O10       1.0000    0.66070   0.38660   0.29420   Biso      1.000     O          -0.668723           
         O11       1.0000    0.72980   0.76280   0.03490   Biso      1.000     O          -0.3357   
         O12       1.0000    0.82820   0.74800   0.84440   Biso      1.000     O          -0.349096           
         O13       1.0000    0.60210   0.37760   0.59310   Biso      1.000     O          -0.71502  
         O14       1.0000    0.52840   0.24890   0.50950   Biso      1.000     O          -0.676351           
         O15       1.0000    0.73230   0.74600   0.55170   Biso      1.000     O          -0.705508           
         O16       1.0000    0.95850   0.67940   0.54470   Biso      1.000     O          -0.530572           
         O17       1.0000    0.12030   0.94060   0.74200   Biso      1.000     O          -0.347287           
         O18       1.0000    0.04420   0.15220   0.72580   Biso      1.000     O          -0.32274400000000003          
         O19       1.0000    0.99280   0.56060   0.33220   Biso      1.000     O          -0.510934           
         O20       1.0000    0.22090   0.51160   0.28280   Biso      1.000     O          -0.741755           
         O21       1.0000    0.46550   0.52410   0.83880   Biso      1.000     O          -0.6152880000000001           
         O22       1.0000    0.33930   0.61340   0.70580   Biso      1.000     O          -0.668725           
         O23       1.0000    0.27020   0.23720   0.96510   Biso      1.000     O          -0.335688           
         O24       1.0000    0.17180   0.25200   0.15560   Biso      1.000     O          -0.349094 