
##########################################################################
#               Crystallographic Information Format file
#               Produced by PyCifRW module
#
#  This is a CIF file.  CIF has been adopted by the International
#  Union of Crystallography as the standard for data archiving and
#  transmission.
#
#  For information on this file format, follow the CIF links at
#  http://www.iucr.org
##########################################################################

data_image0

_cell_length_a                          10.414
_cell_length_b                          10.615
_cell_length_c                          11.317
_cell_angle_alpha                       83.45
_cell_angle_beta                        75.04
_cell_angle_gamma                       69.61
_symmetry_space_group_name_H-M          'P 1'
_symmetry_int_tables_number             1
loop_
  _symmetry_equiv_pos_as_xyz
         'x, y, z' 
loop_
  _atom_site_label
  _atom_site_occupancy
  _atom_site_fract_x
  _atom_site_fract_y
  _atom_site_fract_z
  _atom_site_thermal_displace_type
  _atom_site_B_iso_or_equiv
  _atom_site_type_symbol
  _atom_site_charge
         C1        1.0000    0.17670   0.84360   0.35590   Biso      1.000     C          -0.122151           
         C2        1.0000    0.71770   0.02270   0.56830   Biso      1.000     C          -0.085866           
         C3        1.0000    0.39050   0.72650   0.43860   Biso      1.000     C          0.708348  
         C4        1.0000    0.17370   0.23120   0.43670   Biso      1.000     C          0.654934  
         C5        1.0000    0.89350   0.41880   0.87680   Biso      1.000     C          -0.021849           
         C6        1.0000    0.77130   0.44450   0.96980   Biso      1.000     C          -0.086659           
         C7        1.0000    0.77800   0.41140   0.09050   Biso      1.000     C          0.011581000000000001          
         C8        1.0000    0.90960   0.35030   0.11890   Biso      1.000     C          -0.12926600000000002          
         C9        1.0000    0.02870   0.32480   0.02450   Biso      1.000     C          0.065304  
         C10       1.0000    0.02470   0.35730   0.90450   Biso      1.000     C          -0.13511700000000001          
         C11       1.0000    0.88720   0.45590   0.74670   Biso      1.000     C          0.657936  
         C12       1.0000    0.64640   0.43200   0.19010   Biso      1.000     C          0.583256  
         C13       1.0000    0.35360   0.56800   0.80990   Biso      1.000     C          0.583254  
         C14       1.0000    0.92670   0.03780   0.66470   Biso      1.000     C          0.06991699999999999           
         C15       1.0000    0.93090   0.91410   0.63590   Biso      1.000     C          -0.142241           
         C16       1.0000    0.82420   0.90580   0.58910   Biso      1.000     C          -0.005577           
         C17       1.0000    0.07330   0.96220   0.33530   Biso      1.000     C          0.069886  
         C18       1.0000    0.06910   0.08590   0.36410   Biso      1.000     C          -0.142265           
         C19       1.0000    0.71830   0.14730   0.59350   Biso      1.000     C          -0.009956999999999999         
         C20       1.0000    0.82630   0.76880   0.56330   Biso      1.000     C          0.654937  
         C21       1.0000    0.22200   0.58860   0.90950   Biso      1.000     C          0.011574  
         C22       1.0000    0.97530   0.64270   0.09550   Biso      1.000     C          -0.135106           
         C23       1.0000    0.17580   0.09420   0.41090   Biso      1.000     C          -0.005582           
         C24       1.0000    0.22870   0.55550   0.03020   Biso      1.000     C          -0.08666  
         C25       1.0000    0.10650   0.58120   0.12320   Biso      1.000     C          -0.021846           
         C26       1.0000    0.97130   0.67520   0.97550   Biso      1.000     C          0.0653    
         C27       1.0000    0.09040   0.64970   0.88110   Biso      1.000     C          -0.129269           
         C28       1.0000    0.82330   0.15640   0.64410   Biso      1.000     C          -0.12211  
         C29       1.0000    0.11280   0.54410   0.25330   Biso      1.000     C          0.657931  
         C30       1.0000    0.28170   0.85270   0.40650   Biso      1.000     C          -0.009970999999999999         
         C31       1.0000    0.28230   0.97730   0.43170   Biso      1.000     C          -0.085912           
         C32       1.0000    0.60950   0.27350   0.56140   Biso      1.000     C          0.708358  
         Cu1       1.0000    0.00000   0.50000   0.50000   Biso      1.000     Cu          0.886508  
         H1        1.0000    0.89280   0.66120   0.15680   Biso      1.000     H          0.143978  
         H2        1.0000    0.00450   0.83710   0.64780   Biso      1.000     H          0.13703800000000002           
         H3        1.0000    0.64540   0.01730   0.53730   Biso      1.000     H          0.141489  
         H4        1.0000    0.35460   0.98270   0.46270   Biso      1.000     H          0.141468  
         H5        1.0000    0.10720   0.33880   0.84320   Biso      1.000     H          0.143988  
         H6        1.0000    0.31600   0.51560   0.04930   Biso      1.000     H          0.142039  
         H7        1.0000    0.68400   0.48440   0.95070   Biso      1.000     H          0.14204   
         H8        1.0000    0.82380   0.23900   0.66340   Biso      1.000     H          0.139211  
         H9        1.0000    0.17620   0.76100   0.33660   Biso      1.000     H          0.139201  
         H10       1.0000    0.99550   0.16290   0.35220   Biso      1.000     H          0.137033  
         H11       1.0000    0.08350   0.67240   0.80060   Biso      1.000     H          0.142509  
         H12       1.0000    0.91650   0.32760   0.19940   Biso      1.000     H          0.142509  
         Ho1       1.0000    0.58673   0.59671   0.63225   Biso      1.000     Ho          2.127739  
         Ho2       1.0000    0.41327   0.40329   0.36775   Biso      1.000     Ho          2.127597  
         N1        1.0000    0.16790   0.26210   0.05290   Biso      1.000     N          0.5276430000000001  
         N2        1.0000    0.83210   0.73790   0.94710   Biso      1.000     N          0.527647  
         N3        1.0000    0.04210   0.04330   0.71430   Biso      1.000     N          0.525175  
         N4        1.0000    0.95790   0.95670   0.28570   Biso      1.000     N          0.525159  
         O1        1.0000    0.82610   0.75340   0.84010   Biso      1.000     O          -0.346983           
         O2        1.0000    0.39600   0.61610   0.40550   Biso      1.000     O          -0.7120029999999999           
         O3        1.0000    0.47140   0.74080   0.49800   Biso      1.000     O          -0.674726           
         O4        1.0000    0.28400   0.24920   0.43890   Biso      1.000     O          -0.6916770000000001           
         O5        1.0000    0.05210   0.31840   0.45520   Biso      1.000     O          -0.5397529999999999           
         O6        1.0000    0.87230   0.06250   0.26180   Biso      1.000     O          -0.344467           
         O7        1.0000    0.95000   0.84830   0.27360   Biso      1.000     O          -0.31943299999999997          
         O8        1.0000    0.00160   0.44210   0.67060   Biso      1.000     O          -0.5100779999999999           
         O9        1.0000    0.76990   0.49650   0.72000   Biso      1.000     O          -0.749574           
         O10       1.0000    0.52920   0.48290   0.16420   Biso      1.000     O          -0.6063890000000001           
         O11       1.0000    0.65850   0.39240   0.29790   Biso      1.000     O          -0.659198           
         O12       1.0000    0.17390   0.24660   0.15990   Biso      1.000     O          -0.346964           
         O13       1.0000    0.27130   0.23260   0.96800   Biso      1.000     O          -0.32832100000000003          
         O14       1.0000    0.23010   0.50350   0.28000   Biso      1.000     O          -0.7495569999999999           
         O15       1.0000    0.34150   0.60760   0.70210   Biso      1.000     O          -0.659192           
         O16       1.0000    0.60400   0.38390   0.59450   Biso      1.000     O          -0.7119949999999999           
         O17       1.0000    0.52860   0.25920   0.50200   Biso      1.000     O          -0.6746880000000001           
         O18       1.0000    0.71600   0.75080   0.56110   Biso      1.000     O          -0.691674           
         O19       1.0000    0.94790   0.68160   0.54480   Biso      1.000     O          -0.539736           
         O20       1.0000    0.12770   0.93750   0.73820   Biso      1.000     O          -0.34444  
         O21       1.0000    0.05000   0.15170   0.72640   Biso      1.000     O          -0.31942600000000004          
         O22       1.0000    0.99840   0.55790   0.32940   Biso      1.000     O          -0.5100819999999999           
         O23       1.0000    0.72870   0.76740   0.03200   Biso      1.000     O          -0.328339           
         O24       1.0000    0.47080   0.51710   0.83580   Biso      1.000     O          -0.60639 