
##########################################################################
#               Crystallographic Information Format file
#               Produced by PyCifRW module
#
#  This is a CIF file.  CIF has been adopted by the International
#  Union of Crystallography as the standard for data archiving and
#  transmission.
#
#  For information on this file format, follow the CIF links at
#  http://www.iucr.org
##########################################################################

data_image0

_cell_length_a                          10.241
_cell_length_b                          10.241
_cell_length_c                          14.4026
_cell_angle_alpha                       90
_cell_angle_beta                        90
_cell_angle_gamma                       90
_symmetry_space_group_name_H-M          'P 1'
_symmetry_int_tables_number             1
loop_
  _symmetry_equiv_pos_as_xyz
         'x, y, z' 
loop_
  _atom_site_label
  _atom_site_occupancy
  _atom_site_fract_x
  _atom_site_fract_y
  _atom_site_fract_z
  _atom_site_thermal_displace_type
  _atom_site_B_iso_or_equiv
  _atom_site_type_symbol
  _atom_site_charge
         C1        1.0000    0.04330   0.60190   0.57810   Biso      1.000     C          -0.111118           
         C2        1.0000    0.60190   0.95670   0.82810   Biso      1.000     C          -0.111117           
         C3        1.0000    0.73830   0.95860   0.82820   Biso      1.000     C          -0.014338           
         C4        1.0000    0.39810   0.04330   0.32810   Biso      1.000     C          -0.111118           
         C5        1.0000    0.26170   0.04140   0.32820   Biso      1.000     C          -0.014338           
         C6        1.0000    0.18420   0.08490   0.41230   Biso      1.000     C          0.612419  
         C7        1.0000    0.95670   0.39810   0.07810   Biso      1.000     C          -0.11112  
         C8        1.0000    0.95860   0.26170   0.07820   Biso      1.000     C          -0.014339           
         C9        1.0000    0.91510   0.18420   0.16230   Biso      1.000     C          0.612419  
         C10       1.0000    0.04140   0.73830   0.57820   Biso      1.000     C          -0.014339           
         C11       1.0000    0.08490   0.81580   0.66230   Biso      1.000     C          0.612418  
         C12       1.0000    0.91510   0.81580   0.33770   Biso      1.000     C          0.61242   
         C13       1.0000    0.61360   0.00000   0.25000   Biso      1.000     C          0.628093  
         C14       1.0000    0.19590   0.00000   0.25000   Biso      1.000     C          -0.12135  
         C15       1.0000    0.38640   0.00000   0.75000   Biso      1.000     C          0.628094  
         C16       1.0000    0.53420   0.00000   0.75000   Biso      1.000     C          -0.012677           
         C17       1.0000    0.80410   0.00000   0.75000   Biso      1.000     C          -0.121351           
         C18       1.0000    0.00000   0.61360   0.00000   Biso      1.000     C          0.628091  
         C19       1.0000    0.00000   0.46580   0.00000   Biso      1.000     C          -0.012675           
         C20       1.0000    0.00000   0.19590   0.00000   Biso      1.000     C          -0.12135  
         C21       1.0000    0.00000   0.38640   0.50000   Biso      1.000     C          0.628093  
         C22       1.0000    0.00000   0.53420   0.50000   Biso      1.000     C          -0.012675           
         C23       1.0000    0.00000   0.80410   0.50000   Biso      1.000     C          -0.121351           
         C24       1.0000    0.46580   0.00000   0.25000   Biso      1.000     C          -0.012675           
         C25       1.0000    0.95860   0.73830   0.42180   Biso      1.000     C          -0.014336           
         C26       1.0000    0.81580   0.91510   0.91230   Biso      1.000     C          0.612417  
         C27       1.0000    0.08490   0.18420   0.83770   Biso      1.000     C          0.612418  
         C28       1.0000    0.04140   0.26170   0.92180   Biso      1.000     C          -0.014336           
         C29       1.0000    0.04330   0.39810   0.92190   Biso      1.000     C          -0.111122           
         C30       1.0000    0.81580   0.08490   0.58770   Biso      1.000     C          0.612416  
         C31       1.0000    0.73830   0.04140   0.67180   Biso      1.000     C          -0.014335           
         C32       1.0000    0.60190   0.04330   0.67190   Biso      1.000     C          -0.11112  
         C33       1.0000    0.18420   0.91510   0.08770   Biso      1.000     C          0.612419  
         C34       1.0000    0.26170   0.95860   0.17180   Biso      1.000     C          -0.014336           
         C35       1.0000    0.39810   0.95670   0.17190   Biso      1.000     C          -0.11112  
         C36       1.0000    0.95670   0.60190   0.42190   Biso      1.000     C          -0.111122           
         H1        1.0000    0.44350   0.92670   0.12020   Biso      1.000     H          0.134322  
         H2        1.0000    0.55650   0.07330   0.62020   Biso      1.000     H          0.134322  
         H3        1.0000    0.07330   0.44350   0.87020   Biso      1.000     H          0.134322  
         H4        1.0000    0.92670   0.55650   0.37020   Biso      1.000     H          0.134321  
         H5        1.0000    0.55650   0.92670   0.87980   Biso      1.000     H          0.134321  
         H6        1.0000    0.92670   0.44350   0.12980   Biso      1.000     H          0.13432   
         H7        1.0000    0.44350   0.07330   0.37980   Biso      1.000     H          0.134321  
         H8        1.0000    0.10510   0.00000   0.25000   Biso      1.000     H          0.115243  
         H9        1.0000    0.89490   0.00000   0.75000   Biso      1.000     H          0.115243  
         H10       1.0000    0.00000   0.10510   0.00000   Biso      1.000     H          0.115243  
         H11       1.0000    0.00000   0.89490   0.50000   Biso      1.000     H          0.115243  
         H12       1.0000    0.07330   0.55650   0.62980   Biso      1.000     H          0.134321  
         O1        1.0000    0.90780   0.75840   0.26120   Biso      1.000     O          -0.553761           
         O2        1.0000    0.33230   0.92780   0.80800   Biso      1.000     O          -0.531122           
         O3        1.0000    0.93190   0.88870   0.90130   Biso      1.000     O          -0.517552           
         O4        1.0000    0.75840   0.90780   0.98880   Biso      1.000     O          -0.553758           
         O5        1.0000    0.66770   0.07220   0.30800   Biso      1.000     O          -0.531122           
         O6        1.0000    0.07220   0.33230   0.55800   Biso      1.000     O          -0.531123           
         O7        1.0000    0.24160   0.09220   0.48880   Biso      1.000     O          -0.553761           
         O8        1.0000    0.90780   0.24160   0.23880   Biso      1.000     O          -0.553758           
         O9        1.0000    0.88870   0.06810   0.15130   Biso      1.000     O          -0.517555           
         O10       1.0000    0.88870   0.93190   0.34870   Biso      1.000     O          -0.517553           
         O11       1.0000    0.92780   0.66770   0.05800   Biso      1.000     O          -0.531118           
         O12       1.0000    0.06810   0.11130   0.40130   Biso      1.000     O          -0.517553           
         O13       1.0000    0.92780   0.33230   0.44200   Biso      1.000     O          -0.531116           
         O14       1.0000    0.09220   0.75840   0.73880   Biso      1.000     O          -0.553762           
         O15       1.0000    0.11130   0.06810   0.84870   Biso      1.000     O          -0.517555           
         O16       1.0000    0.07220   0.66770   0.94200   Biso      1.000     O          -0.531119           
         O17       1.0000    0.75840   0.09220   0.51120   Biso      1.000     O          -0.553757           
         O18       1.0000    0.93190   0.11130   0.59870   Biso      1.000     O          -0.517554           
         O19       1.0000    0.33230   0.07220   0.69200   Biso      1.000     O          -0.53112  
         O20       1.0000    0.24160   0.90780   0.01120   Biso      1.000     O          -0.553761           
         O21       1.0000    0.06810   0.88870   0.09870   Biso      1.000     O          -0.517554           
         O22       1.0000    0.66770   0.92780   0.19200   Biso      1.000     O          -0.531122           
         O23       1.0000    0.11130   0.93190   0.65130   Biso      1.000     O          -0.517551           
         O24       1.0000    0.09220   0.24160   0.76120   Biso      1.000     O          -0.55376  
         Yb1       1.0000    0.85287   0.14713   0.37500   Biso      1.000     Yb          1.352991  
         Yb2       1.0000    0.14713   0.85287   0.87500   Biso      1.000     Yb          1.352994  
         Yb3       1.0000    0.14713   0.14713   0.62500   Biso      1.000     Yb          1.352994  
         Yb4       1.0000    0.85287   0.85287   0.12500   Biso      1.000     Yb          1.352986 