
##########################################################################
#               Crystallographic Information Format file
#               Produced by PyCifRW module
#
#  This is a CIF file.  CIF has been adopted by the International
#  Union of Crystallography as the standard for data archiving and
#  transmission.
#
#  For information on this file format, follow the CIF links at
#  http://www.iucr.org
##########################################################################

data_image0

_cell_length_a                          10.4278
_cell_length_b                          10.4278
_cell_length_c                          14.2602
_cell_angle_alpha                       90
_cell_angle_beta                        90
_cell_angle_gamma                       90
_symmetry_space_group_name_H-M          'P 1'
_symmetry_int_tables_number             1
loop_
  _symmetry_equiv_pos_as_xyz
         'x, y, z' 
loop_
  _atom_site_label
  _atom_site_occupancy
  _atom_site_fract_x
  _atom_site_fract_y
  _atom_site_fract_z
  _atom_site_thermal_displace_type
  _atom_site_B_iso_or_equiv
  _atom_site_type_symbol
  _atom_site_charge
         C1        1.0000    0.27450   0.04070   0.67590   Biso      1.000     C          -0.019244999999999998         
         C2        1.0000    0.02150   0.27080   0.08870   Biso      1.000     C          -0.017813           
         C3        1.0000    0.99660   0.21070   0.00370   Biso      1.000     C          -0.116849           
         C4        1.0000    0.95930   0.27450   0.92590   Biso      1.000     C          -0.019228           
         C5        1.0000    0.94690   0.40740   0.93000   Biso      1.000     C          -0.095807           
         C6        1.0000    0.97840   0.47150   0.01060   Biso      1.000     C          -0.031902           
         C7        1.0000    0.01480   0.40420   0.08900   Biso      1.000     C          -0.101263           
         C8        1.0000    0.92800   0.20420   0.83710   Biso      1.000     C          0.649432  
         C9        1.0000    0.97160   0.62090   0.01310   Biso      1.000     C          0.684816  
         C10       1.0000    0.19990   0.94390   0.92550   Biso      1.000     C          0.650664  
         C11       1.0000    0.05610   0.19990   0.17550   Biso      1.000     C          0.650664  
         C12       1.0000    0.27080   0.97850   0.83870   Biso      1.000     C          -0.017814           
         C13       1.0000    0.52850   0.97840   0.26060   Biso      1.000     C          -0.031911           
         C14       1.0000    0.40740   0.05310   0.68000   Biso      1.000     C          -0.095805           
         C15       1.0000    0.47150   0.02160   0.76060   Biso      1.000     C          -0.031902           
         C16       1.0000    0.40420   0.98520   0.83900   Biso      1.000     C          -0.101263           
         C17       1.0000    0.20420   0.07200   0.58710   Biso      1.000     C          0.6494340000000001  
         C18       1.0000    0.62090   0.02840   0.76310   Biso      1.000     C          0.684816  
         C19       1.0000    0.80010   0.05610   0.42550   Biso      1.000     C          0.650664  
         C20       1.0000    0.72920   0.02150   0.33870   Biso      1.000     C          -0.017813           
         C21       1.0000    0.78930   0.99660   0.25370   Biso      1.000     C          -0.116849           
         C22       1.0000    0.21070   0.00340   0.75370   Biso      1.000     C          -0.11683299999999999          
         C23       1.0000    0.02840   0.37910   0.51310   Biso      1.000     C          0.684817  
         C24       1.0000    0.07200   0.79580   0.33710   Biso      1.000     C          0.6494340000000001  
         C25       1.0000    0.98520   0.59580   0.58900   Biso      1.000     C          -0.10127  
         C26       1.0000    0.37910   0.97160   0.26310   Biso      1.000     C          0.684817  
         C27       1.0000    0.79580   0.92800   0.08710   Biso      1.000     C          0.649432  
         C28       1.0000    0.59580   0.01480   0.33900   Biso      1.000     C          -0.101262           
         C29       1.0000    0.72550   0.95930   0.17590   Biso      1.000     C          -0.019229           
         C30       1.0000    0.94390   0.80010   0.67550   Biso      1.000     C          0.650664  
         C31       1.0000    0.59260   0.94690   0.18000   Biso      1.000     C          -0.09579800000000001          
         C32       1.0000    0.02160   0.52850   0.51060   Biso      1.000     C          -0.031906           
         C33       1.0000    0.05310   0.59260   0.43000   Biso      1.000     C          -0.09579700000000001          
         C34       1.0000    0.04070   0.72550   0.42590   Biso      1.000     C          -0.019246           
         C35       1.0000    0.00340   0.78930   0.50370   Biso      1.000     C          -0.11683299999999999          
         C36       1.0000    0.97850   0.72920   0.58870   Biso      1.000     C          -0.017811           
         H1        1.0000    0.55130   0.03530   0.39350   Biso      1.000     H          0.131642  
         H2        1.0000    0.99400   0.87780   0.50020   Biso      1.000     H          0.10346   
         H3        1.0000    0.08270   0.54740   0.37810   Biso      1.000     H          0.131486  
         H4        1.0000    0.96470   0.55130   0.64350   Biso      1.000     H          0.131643  
         H5        1.0000    0.00600   0.12220   0.00020   Biso      1.000     H          0.10346099999999998           
         H6        1.0000    0.03530   0.44870   0.14350   Biso      1.000     H          0.131642  
         H7        1.0000    0.12220   0.99400   0.75020   Biso      1.000     H          0.10346   
         H8        1.0000    0.44870   0.96470   0.89350   Biso      1.000     H          0.131642  
         H9        1.0000    0.87780   0.00600   0.25020   Biso      1.000     H          0.10346099999999998           
         H10       1.0000    0.54740   0.91730   0.12810   Biso      1.000     H          0.131486  
         H11       1.0000    0.91730   0.45260   0.87810   Biso      1.000     H          0.131487  
         H12       1.0000    0.45260   0.08270   0.62810   Biso      1.000     H          0.131487  
         Nd1       1.0000    0.86886   0.13405   0.62473   Biso      1.000     Nd          2.163222  
         Nd2       1.0000    0.13405   0.13114   0.37473   Biso      1.000     Nd          2.163221  
         Nd3       1.0000    0.86595   0.86886   0.87473   Biso      1.000     Nd          2.163222  
         Nd4       1.0000    0.13114   0.86595   0.12473   Biso      1.000     Nd          2.163221  
         O1        1.0000    0.73200   0.90490   0.01430   Biso      1.000     O          -0.6382680000000001           
         O2        1.0000    0.91750   0.92430   0.08710   Biso      1.000     O          -0.746179           
         O3        1.0000    0.74150   0.04020   0.50210   Biso      1.000     O          -0.658784           
         O4        1.0000    0.90940   0.10140   0.42260   Biso      1.000     O          -0.7263890000000001           
         O5        1.0000    0.67300   0.97200   0.82920   Biso      1.000     O          -0.681683           
         O6        1.0000    0.67320   0.08860   0.69940   Biso      1.000     O          -0.680559           
         O7        1.0000    0.26800   0.09510   0.51430   Biso      1.000     O          -0.6382680000000001           
         O8        1.0000    0.08250   0.07570   0.58710   Biso      1.000     O          -0.7461800000000001           
         O9        1.0000    0.25850   0.95980   0.00210   Biso      1.000     O          -0.658784           
         O10       1.0000    0.09060   0.89860   0.92260   Biso      1.000     O          -0.72639  
         O11       1.0000    0.02800   0.67300   0.07920   Biso      1.000     O          -0.681683           
         O12       1.0000    0.91140   0.67320   0.94940   Biso      1.000     O          -0.680559           
         O13       1.0000    0.90490   0.26800   0.76430   Biso      1.000     O          -0.6382680000000001           
         O14       1.0000    0.92430   0.08250   0.83710   Biso      1.000     O          -0.7461800000000001           
         O15       1.0000    0.04020   0.25850   0.25210   Biso      1.000     O          -0.658784           
         O16       1.0000    0.10140   0.09060   0.17260   Biso      1.000     O          -0.7263890000000001           
         O17       1.0000    0.97200   0.32700   0.57920   Biso      1.000     O          -0.681682           
         O18       1.0000    0.08860   0.32680   0.44940   Biso      1.000     O          -0.68056  
         O19       1.0000    0.09510   0.73200   0.26430   Biso      1.000     O          -0.6382680000000001           
         O20       1.0000    0.07570   0.91750   0.33710   Biso      1.000     O          -0.7461800000000001           
         O21       1.0000    0.95980   0.74150   0.75210   Biso      1.000     O          -0.658784           
         O22       1.0000    0.89860   0.90940   0.67260   Biso      1.000     O          -0.72639  
         O23       1.0000    0.32680   0.91140   0.19940   Biso      1.000     O          -0.68056  
         O24       1.0000    0.32700   0.02800   0.32920   Biso      1.000     O          -0.681683 