
##########################################################################
#               Crystallographic Information Format file
#               Produced by PyCifRW module
#
#  This is a CIF file.  CIF has been adopted by the International
#  Union of Crystallography as the standard for data archiving and
#  transmission.
#
#  For information on this file format, follow the CIF links at
#  http://www.iucr.org
##########################################################################

data_image0

_cell_length_a                          6.8306
_cell_length_b                          7.6427
_cell_length_c                          10.5844
_cell_angle_alpha                       111.164
_cell_angle_beta                        102.975
_cell_angle_gamma                       90
_symmetry_space_group_name_H-M          'P 1'
_symmetry_int_tables_number             1
loop_
  _symmetry_equiv_pos_as_xyz
         'x, y, z' 
loop_
  _atom_site_label
  _atom_site_occupancy
  _atom_site_fract_x
  _atom_site_fract_y
  _atom_site_fract_z
  _atom_site_thermal_displace_type
  _atom_site_B_iso_or_equiv
  _atom_site_type_symbol
  _atom_site_charge
         C1        1.0000    0.67450   0.71970   0.78380   Biso      1.000     C          0.604493  
         C2        1.0000    0.32550   0.28030   0.21620   Biso      1.000     C          0.604492  
         C3        1.0000    0.30230   0.43030   0.45920   Biso      1.000     C          -0.098964           
         C4        1.0000    0.61350   0.46370   0.40380   Biso      1.000     C          -0.086895           
         C5        1.0000    0.41580   0.39400   0.36300   Biso      1.000     C          -0.013968           
         C6        1.0000    0.17450   0.06410   0.78380   Biso      1.000     C          0.604248  
         C7        1.0000    0.19770   0.97110   0.54080   Biso      1.000     C          -0.098319           
         C8        1.0000    0.88650   0.05990   0.59620   Biso      1.000     C          -0.0886   
         C9        1.0000    0.08420   0.03100   0.63700   Biso      1.000     C          -0.013531           
         C10       1.0000    0.69770   0.56970   0.54080   Biso      1.000     C          -0.098953           
         C11       1.0000    0.91580   0.96900   0.36300   Biso      1.000     C          -0.013553           
         C12       1.0000    0.11350   0.94010   0.40380   Biso      1.000     C          -0.088579           
         C13       1.0000    0.80230   0.02890   0.45920   Biso      1.000     C          -0.098294           
         C14       1.0000    0.82550   0.93590   0.21620   Biso      1.000     C          0.604251  
         C15       1.0000    0.58420   0.60600   0.63700   Biso      1.000     C          -0.013977           
         C16       1.0000    0.38650   0.53630   0.59620   Biso      1.000     C          -0.086878           
         Fe1       1.0000    0.00000   0.00000   0.00000   Biso      1.000     Fe          1.093249  
         Fe2       1.0000    0.50000   0.00000   0.00000   Biso      1.000     Fe          1.151334  
         H1        1.0000    0.69500   0.43770   0.33480   Biso      1.000     H          0.129237  
         H2        1.0000    0.33950   0.95030   0.57000   Biso      1.000     H          0.117851  
         H3        1.0000    0.80500   0.10290   0.66520   Biso      1.000     H          0.130194  
         H4        1.0000    0.83950   0.61970   0.57000   Biso      1.000     H          0.118638  
         H5        1.0000    0.30500   0.56230   0.66520   Biso      1.000     H          0.129236  
         H6        1.0000    0.66050   0.04970   0.43000   Biso      1.000     H          0.117849  
         H7        1.0000    0.19500   0.89710   0.33480   Biso      1.000     H          0.130192  
         H8        1.0000    0.16050   0.38030   0.43000   Biso      1.000     H          0.118639  
         O1        1.0000    0.25000   0.88650   0.00000   Biso      1.000     O          -0.563452           
         O2        1.0000    0.14050   0.21960   0.17780   Biso      1.000     O          -0.455538           
         O3        1.0000    0.43240   0.24260   0.12740   Biso      1.000     O          -0.475694           
         O4        1.0000    0.35950   0.04180   0.82220   Biso      1.000     O          -0.457913           
         O5        1.0000    0.93240   0.88480   0.12740   Biso      1.000     O          -0.474102           
         O6        1.0000    0.85950   0.78040   0.82220   Biso      1.000     O          -0.455537           
         O7        1.0000    0.56760   0.75740   0.87260   Biso      1.000     O          -0.475694           
         O8        1.0000    0.64050   0.95820   0.17780   Biso      1.000     O          -0.457913           
         O9        1.0000    0.06760   0.11520   0.87260   Biso      1.000     O          -0.4741   
         O10       1.0000    0.75000   0.11350   0.00000   Biso      1.000     O          -0.563451 