
##########################################################################
#               Crystallographic Information Format file
#               Produced by PyCifRW module
#
#  This is a CIF file.  CIF has been adopted by the International
#  Union of Crystallography as the standard for data archiving and
#  transmission.
#
#  For information on this file format, follow the CIF links at
#  http://www.iucr.org
##########################################################################

data_image0

_cell_length_a                          20.137
_cell_length_b                          10.702
_cell_length_c                          11.418
_cell_angle_alpha                       90
_cell_angle_beta                        90
_cell_angle_gamma                       90
_symmetry_space_group_name_H-M          'P 1'
_symmetry_int_tables_number             1
loop_
  _symmetry_equiv_pos_as_xyz
         'x, y, z' 
loop_
  _atom_site_label
  _atom_site_occupancy
  _atom_site_fract_x
  _atom_site_fract_y
  _atom_site_fract_z
  _atom_site_thermal_displace_type
  _atom_site_B_iso_or_equiv
  _atom_site_type_symbol
  _atom_site_charge
         C1        1.0000    0.72800   0.30370   0.60430   Biso      1.000     C          -0.08872000000000001          
         C2        1.0000    0.93930   0.64540   0.24020   Biso      1.000     C          0.091043  
         C3        1.0000    0.25480   0.18320   0.64470   Biso      1.000     C          -0.010786           
         C4        1.0000    0.29650   0.12210   0.71580   Biso      1.000     C          -0.109358           
         C5        1.0000    0.69040   0.87310   0.10360   Biso      1.000     C          0.58382   
         C6        1.0000    0.19040   0.12690   0.60360   Biso      1.000     C          0.58382   
         C7        1.0000    0.43930   0.35460   0.74020   Biso      1.000     C          0.091044  
         C8        1.0000    0.43920   0.47710   0.78290   Biso      1.000     C          -0.170545           
         C9        1.0000    0.79650   0.87790   0.21580   Biso      1.000     C          -0.109383           
         C10       1.0000    0.75480   0.81680   0.14470   Biso      1.000     C          -0.010763           
         C11       1.0000    0.77200   0.69630   0.10430   Biso      1.000     C          -0.08872200000000001          
         C12       1.0000    0.83040   0.64390   0.13920   Biso      1.000     C          -0.144759           
         C13       1.0000    0.60350   0.10360   0.84260   Biso      1.000     C          0.639868  
         C14       1.0000    0.64200   0.17430   0.75090   Biso      1.000     C          -0.080956           
         C15       1.0000    0.62470   0.29260   0.71110   Biso      1.000     C          0.065152  
         C16       1.0000    0.66960   0.35610   0.63920   Biso      1.000     C          -0.14476  
         C17       1.0000    0.87530   0.70740   0.21110   Biso      1.000     C          0.065152  
         C18       1.0000    0.85800   0.82570   0.25090   Biso      1.000     C          -0.080953           
         C19       1.0000    0.89650   0.89640   0.34260   Biso      1.000     C          0.6398689999999999  
         C20       1.0000    0.74520   0.18320   0.64470   Biso      1.000     C          -0.010786           
         C21       1.0000    0.70350   0.12210   0.71580   Biso      1.000     C          -0.109358           
         C22       1.0000    0.80960   0.12690   0.60360   Biso      1.000     C          0.583821  
         C23       1.0000    0.56070   0.35460   0.74020   Biso      1.000     C          0.091044  
         C24       1.0000    0.93920   0.52290   0.28290   Biso      1.000     C          -0.170544           
         C25       1.0000    0.27200   0.30370   0.60430   Biso      1.000     C          -0.08872000000000001          
         C26       1.0000    0.37530   0.29260   0.71110   Biso      1.000     C          0.065152  
         C27       1.0000    0.10350   0.89640   0.34260   Biso      1.000     C          0.639868  
         C28       1.0000    0.14200   0.82570   0.25090   Biso      1.000     C          -0.080956           
         C29       1.0000    0.12470   0.70740   0.21110   Biso      1.000     C          0.065153  
         C30       1.0000    0.16960   0.64390   0.13920   Biso      1.000     C          -0.144768           
         C31       1.0000    0.50000   0.66530   0.85170   Biso      1.000     C          0.608073  
         C32       1.0000    0.22800   0.69630   0.10430   Biso      1.000     C          -0.088712           
         C33       1.0000    0.50000   0.53950   0.80320   Biso      1.000     C          -0.020166           
         C34       1.0000    0.24520   0.81680   0.14470   Biso      1.000     C          -0.010787           
         C35       1.0000    0.20350   0.87790   0.21580   Biso      1.000     C          -0.109358           
         C36       1.0000    0.30960   0.87310   0.10360   Biso      1.000     C          0.58382   
         C37       1.0000    0.33040   0.35610   0.63920   Biso      1.000     C          -0.14476  
         C38       1.0000    0.06070   0.64540   0.24020   Biso      1.000     C          0.091044  
         C39       1.0000    0.56080   0.47710   0.78290   Biso      1.000     C          -0.170545           
         C40       1.0000    0.06080   0.52290   0.28290   Biso      1.000     C          -0.170544           
         C41       1.0000    0.50000   0.29380   0.72040   Biso      1.000     C          -0.191327           
         C42       1.0000    0.00000   0.33470   0.35170   Biso      1.000     C          0.608073  
         C43       1.0000    0.00000   0.46050   0.30320   Biso      1.000     C          -0.020166           
         C44       1.0000    0.00000   0.70620   0.22040   Biso      1.000     C          -0.191327           
         C45       1.0000    0.39650   0.10360   0.84260   Biso      1.000     C          0.639868  
         C46       1.0000    0.35800   0.17430   0.75090   Biso      1.000     C          -0.080956           
         H1        1.0000    0.50000   0.21170   0.69360   Biso      1.000     H          0.12528   
         H2        1.0000    0.78480   0.95680   0.24290   Biso      1.000     H          0.133629  
         H3        1.0000    0.00000   0.10870   0.59190   Biso      1.000     H          0.45031099999999996           
         H4        1.0000    0.00000   0.78830   0.19360   Biso      1.000     H          0.12528   
         H5        1.0000    0.89920   0.48250   0.29790   Biso      1.000     H          0.134054  
         H6        1.0000    0.60080   0.51750   0.79790   Biso      1.000     H          0.134054  
         H7        1.0000    0.74370   0.65310   0.05430   Biso      1.000     H          0.123948  
         H8        1.0000    0.84060   0.56340   0.11450   Biso      1.000     H          0.120978  
         H9        1.0000    0.50000   0.89130   0.09190   Biso      1.000     H          0.45031099999999996           
         H10       1.0000    0.28480   0.04320   0.74290   Biso      1.000     H          0.133627  
         H11       1.0000    0.21520   0.95680   0.24290   Biso      1.000     H          0.133627  
         H12       1.0000    0.71520   0.04320   0.74290   Biso      1.000     H          0.133626  
         H13       1.0000    0.34060   0.43660   0.61450   Biso      1.000     H          0.120979  
         H14       1.0000    0.24370   0.34690   0.55430   Biso      1.000     H          0.123947  
         H15       1.0000    0.39920   0.51750   0.79790   Biso      1.000     H          0.134054  
         H16       1.0000    0.25630   0.65310   0.05430   Biso      1.000     H          0.123947  
         H17       1.0000    0.65940   0.43660   0.61450   Biso      1.000     H          0.120979  
         H18       1.0000    0.10080   0.48250   0.29790   Biso      1.000     H          0.134054  
         H19       1.0000    0.75630   0.34690   0.55430   Biso      1.000     H          0.123947  
         H20       1.0000    0.15940   0.56340   0.11450   Biso      1.000     H          0.120979  
         O1        1.0000    0.00000   0.06270   0.53420   Biso      1.000     O          -0.919212           
         O2        1.0000    0.10470   0.01620   0.33170   Biso      1.000     O          -0.543678           
         O3        1.0000    0.32200   0.98260   0.13570   Biso      1.000     O          -0.561442           
         O4        1.0000    0.34620   0.80870   0.03880   Biso      1.000     O          -0.567272           
         O5        1.0000    0.05520   0.28280   0.37050   Biso      1.000     O          -0.550999           
         O6        1.0000    0.60470   0.98380   0.83170   Biso      1.000     O          -0.543678           
         O7        1.0000    0.94480   0.28280   0.37050   Biso      1.000     O          -0.550999           
         O8        1.0000    0.65380   0.80870   0.03880   Biso      1.000     O          -0.567272           
         O9        1.0000    0.67800   0.98260   0.13570   Biso      1.000     O          -0.561442           
         O10       1.0000    0.89530   0.01620   0.33170   Biso      1.000     O          -0.543678           
         O11       1.0000    0.92630   0.83830   0.41890   Biso      1.000     O          -0.567492           
         O12       1.0000    0.82200   0.01740   0.63570   Biso      1.000     O          -0.561442           
         O13       1.0000    0.84620   0.19130   0.53880   Biso      1.000     O          -0.567272           
         O14       1.0000    0.55520   0.71720   0.87050   Biso      1.000     O          -0.550999           
         O15       1.0000    0.07370   0.83830   0.41890   Biso      1.000     O          -0.567491           
         O16       1.0000    0.42630   0.16170   0.91890   Biso      1.000     O          -0.567491           
         O17       1.0000    0.39530   0.98380   0.83170   Biso      1.000     O          -0.543678           
         O18       1.0000    0.17800   0.01740   0.63570   Biso      1.000     O          -0.561441           
         O19       1.0000    0.15380   0.19130   0.53880   Biso      1.000     O          -0.567272           
         O20       1.0000    0.44480   0.71720   0.87050   Biso      1.000     O          -0.550999           
         O21       1.0000    0.50000   0.93730   0.03420   Biso      1.000     O          -0.919213           
         O22       1.0000    0.57370   0.16170   0.91890   Biso      1.000     O          -0.567492           
         Zn1       1.0000    0.42105   0.87087   0.95551   Biso      1.000     Zn          0.9586180000000001  
         Zn2       1.0000    0.00000   0.86070   0.54570   Biso      1.000     Zn          1.036837  
         Zn3       1.0000    0.57895   0.87087   0.95551   Biso      1.000     Zn          0.958619  
         Zn4       1.0000    0.92105   0.12913   0.45551   Biso      1.000     Zn          0.9586180000000001  
         Zn5       1.0000    0.50000   0.13930   0.04570   Biso      1.000     Zn          1.036837  
         Zn6       1.0000    0.07895   0.12913   0.45551   Biso      1.000     Zn          0.9586180000000001 