
##########################################################################
#               Crystallographic Information Format file
#               Produced by PyCifRW module
#
#  This is a CIF file.  CIF has been adopted by the International
#  Union of Crystallography as the standard for data archiving and
#  transmission.
#
#  For information on this file format, follow the CIF links at
#  http://www.iucr.org
##########################################################################

data_image0

_cell_length_a                          8.553
_cell_length_b                          9.114
_cell_length_c                          10.399
_cell_angle_alpha                       105.16
_cell_angle_beta                        97.83
_cell_angle_gamma                       114.41
_symmetry_space_group_name_H-M          'P 1'
_symmetry_int_tables_number             1
loop_
  _symmetry_equiv_pos_as_xyz
         'x, y, z' 
loop_
  _atom_site_label
  _atom_site_occupancy
  _atom_site_fract_x
  _atom_site_fract_y
  _atom_site_fract_z
  _atom_site_thermal_displace_type
  _atom_site_B_iso_or_equiv
  _atom_site_type_symbol
  _atom_site_charge
         C1        1.0000    0.77810   0.09640   0.10480   Biso      1.000     C          0.560276  
         C2        1.0000    0.60600   0.08850   0.69800   Biso      1.000     C          -0.14156  
         C3        1.0000    0.55660   0.16650   0.80620   Biso      1.000     C          0.289729  
         C4        1.0000    0.61790   0.17460   0.93820   Biso      1.000     C          -0.214196           
         C5        1.0000    0.28740   0.98810   0.27990   Biso      1.000     C          -0.13806  
         C6        1.0000    0.22950   0.98270   0.14660   Biso      1.000     C          -0.106703           
         C7        1.0000    0.72420   0.09720   0.96200   Biso      1.000     C          0.019993  
         C8        1.0000    0.27580   0.90280   0.03800   Biso      1.000     C          0.020035  
         C9        1.0000    0.38210   0.82540   0.06180   Biso      1.000     C          -0.214175           
         C10       1.0000    0.77050   0.01730   0.85340   Biso      1.000     C          -0.106818           
         C11       1.0000    0.44340   0.83350   0.19380   Biso      1.000     C          0.28971   
         C12       1.0000    0.39400   0.91150   0.30200   Biso      1.000     C          -0.14156  
         C13       1.0000    0.71260   0.01190   0.72010   Biso      1.000     C          -0.13802  
         C14       1.0000    0.22190   0.90360   0.89520   Biso      1.000     C          0.560298  
         Cu1       1.0000    0.82825   0.95790   0.29730   Biso      1.000     Cu          0.960846  
         Cu2       1.0000    0.17175   0.04210   0.70270   Biso      1.000     Cu          0.960858  
         Cu3       1.0000    0.50000   0.50000   0.50000   Biso      1.000     Cu          0.58691   
         H1        1.0000    0.46000   0.28300   0.71400   Biso      1.000     H          0.332027  
         H2        1.0000    0.44500   0.32000   0.85500   Biso      1.000     H          0.327065  
         H3        1.0000    0.56750   0.08740   0.60950   Biso      1.000     H          0.137041  
         H4        1.0000    0.58860   0.23150   0.01150   Biso      1.000     H          0.13386   
         H5        1.0000    0.55500   0.68000   0.14500   Biso      1.000     H          0.327095  
         H6        1.0000    0.84170   0.96610   0.86960   Biso      1.000     H          0.126534  
         H7        1.0000    0.41140   0.76850   0.98850   Biso      1.000     H          0.133876  
         H8        1.0000    0.43250   0.91260   0.39050   Biso      1.000     H          0.137053  
         H9        1.0000    0.54000   0.71700   0.28600   Biso      1.000     H          0.332054  
         H10       1.0000    0.15830   0.03390   0.13040   Biso      1.000     H          0.126525  
         N1        1.0000    0.43280   0.23150   0.77700   Biso      1.000     N          -0.635484           
         N2        1.0000    0.56720   0.76850   0.22300   Biso      1.000     N          -0.635334           
         O1        1.0000    0.59900   0.72950   0.49550   Biso      1.000     O          -0.7242   
         O2        1.0000    0.91950   0.87360   0.63510   Biso      1.000     O          -0.7101   
         O3        1.0000    0.19320   0.98870   0.51390   Biso      1.000     O          -0.710453           
         O4        1.0000    0.81380   0.97530   0.11260   Biso      1.000     O          -0.52905  
         O5        1.0000    0.40100   0.27050   0.50450   Biso      1.000     O          -0.723967           
         O6        1.0000    0.08050   0.12640   0.36490   Biso      1.000     O          -0.709813           
         O7        1.0000    0.18620   0.02470   0.88740   Biso      1.000     O          -0.529328           
         O8        1.0000    0.21730   0.79390   0.79370   Biso      1.000     O          -0.521013           
         O9        1.0000    0.78270   0.20610   0.20630   Biso      1.000     O          -0.520921           
         O10       1.0000    0.80680   0.01130   0.48610   Biso      1.000     O          -0.710287           
         P1        1.0000    0.76396   0.90027   0.57603   Biso      1.000     P          1.249662  
         P2        1.0000    0.23604   0.09973   0.42397   Biso      1.000     P          1.249595 