
##########################################################################
#               Crystallographic Information Format file
#               Produced by PyCifRW module
#
#  This is a CIF file.  CIF has been adopted by the International
#  Union of Crystallography as the standard for data archiving and
#  transmission.
#
#  For information on this file format, follow the CIF links at
#  http://www.iucr.org
##########################################################################

data_image0

_cell_length_a                          12.714
_cell_length_b                          12.714
_cell_length_c                          12.714
_cell_angle_alpha                       90
_cell_angle_beta                        90
_cell_angle_gamma                       90
_symmetry_space_group_name_H-M          'P 1'
_symmetry_int_tables_number             1
loop_
  _symmetry_equiv_pos_as_xyz
         'x, y, z' 
loop_
  _atom_site_label
  _atom_site_occupancy
  _atom_site_fract_x
  _atom_site_fract_y
  _atom_site_fract_z
  _atom_site_thermal_displace_type
  _atom_site_B_iso_or_equiv
  _atom_site_type_symbol
  _atom_site_charge
         C1        1.0000    0.77600   0.27600   0.47400   Biso      1.000     C          -0.170044           
         C2        1.0000    0.97400   0.47400   0.47400   Biso      1.000     C          -0.169986           
         C3        1.0000    0.47400   0.97400   0.47400   Biso      1.000     C          -0.178189           
         C4        1.0000    0.47400   0.47400   0.97400   Biso      1.000     C          -0.169966           
         C5        1.0000    0.27600   0.47400   0.77600   Biso      1.000     C          -0.16999  
         C6        1.0000    0.27600   0.97400   0.27600   Biso      1.000     C          -0.17852  
         C7        1.0000    0.77600   0.97400   0.77600   Biso      1.000     C          -0.178145           
         C8        1.0000    0.47400   0.77600   0.27600   Biso      1.000     C          -0.178311           
         C9        1.0000    0.97400   0.97400   0.97400   Biso      1.000     C          -0.178269           
         C10       1.0000    0.97400   0.77600   0.77600   Biso      1.000     C          -0.178455           
         C11       1.0000    0.27600   0.27600   0.97400   Biso      1.000     C          -0.169964           
         C12       1.0000    0.77600   0.47400   0.27600   Biso      1.000     C          -0.169973           
         C13       1.0000    0.47400   0.27600   0.77600   Biso      1.000     C          -0.170014           
         C14       1.0000    0.97400   0.27600   0.27600   Biso      1.000     C          -0.169985           
         C15       1.0000    0.22400   0.72400   0.52600   Biso      1.000     C          -0.175622           
         C16       1.0000    0.22400   0.22400   0.02600   Biso      1.000     C          -0.173364           
         C17       1.0000    0.72400   0.52600   0.22400   Biso      1.000     C          -0.17358  
         C18       1.0000    0.27600   0.77600   0.47400   Biso      1.000     C          -0.177815           
         C19       1.0000    0.77600   0.77600   0.97400   Biso      1.000     C          -0.178442           
         C20       1.0000    0.02600   0.22400   0.22400   Biso      1.000     C          -0.173386           
         C21       1.0000    0.02600   0.72400   0.72400   Biso      1.000     C          -0.17499  
         C22       1.0000    0.02600   0.02600   0.02600   Biso      1.000     C          -0.175248           
         C23       1.0000    0.52600   0.22400   0.72400   Biso      1.000     C          -0.173753           
         C24       1.0000    0.52600   0.02600   0.52600   Biso      1.000     C          -0.174858           
         C25       1.0000    0.52600   0.52600   0.02600   Biso      1.000     C          -0.173552           
         C26       1.0000    0.72400   0.22400   0.52600   Biso      1.000     C          -0.173758           
         C27       1.0000    0.02600   0.52600   0.52600   Biso      1.000     C          -0.173394           
         C28       1.0000    0.22400   0.52600   0.72400   Biso      1.000     C          -0.17341  
         C29       1.0000    0.22400   0.02600   0.22400   Biso      1.000     C          -0.174881           
         C30       1.0000    0.72400   0.02600   0.72400   Biso      1.000     C          -0.175383           
         C31       1.0000    0.52600   0.72400   0.22400   Biso      1.000     C          -0.175405           
         C32       1.0000    0.72400   0.72400   0.02600   Biso      1.000     C          -0.175046           
         Cd1       1.0000    0.37500   0.87500   0.37500   Biso      1.000     Cd          0.705571  
         Cd2       1.0000    0.37500   0.37500   0.87500   Biso      1.000     Cd          0.688366  
         Cd3       1.0000    0.87500   0.87500   0.87500   Biso      1.000     Cd          0.705635  
         Cd4       1.0000    0.87500   0.37500   0.37500   Biso      1.000     Cd          0.688364  
         Cd5       1.0000    0.62500   0.62500   0.12500   Biso      1.000     Cd          0.697104  
         Cd6       1.0000    0.62500   0.12500   0.62500   Biso      1.000     Cd          0.697268  
         Cd7       1.0000    0.12500   0.62500   0.62500   Biso      1.000     Cd          0.696668  
         Cd8       1.0000    0.12500   0.12500   0.12500   Biso      1.000     Cd          0.696722 