
##########################################################################
#               Crystallographic Information Format file
#               Produced by PyCifRW module
#
#  This is a CIF file.  CIF has been adopted by the International
#  Union of Crystallography as the standard for data archiving and
#  transmission.
#
#  For information on this file format, follow the CIF links at
#  http://www.iucr.org
##########################################################################

data_image0

_cell_length_a                          12.668
_cell_length_b                          12.668
_cell_length_c                          12.668
_cell_angle_alpha                       90
_cell_angle_beta                        90
_cell_angle_gamma                       90
_symmetry_space_group_name_H-M          'P 1'
_symmetry_int_tables_number             1
loop_
  _symmetry_equiv_pos_as_xyz
         'x, y, z' 
loop_
  _atom_site_label
  _atom_site_occupancy
  _atom_site_fract_x
  _atom_site_fract_y
  _atom_site_fract_z
  _atom_site_thermal_displace_type
  _atom_site_B_iso_or_equiv
  _atom_site_type_symbol
  _atom_site_charge
         C1        1.0000    0.22300   0.72300   0.02700   Biso      1.000     C          -0.16109500000000002          
         C2        1.0000    0.52700   0.02700   0.02700   Biso      1.000     C          -0.159968           
         C3        1.0000    0.02700   0.52700   0.02700   Biso      1.000     C          -0.16048199999999999          
         C4        1.0000    0.02700   0.02700   0.52700   Biso      1.000     C          -0.165516           
         C5        1.0000    0.72300   0.02700   0.22300   Biso      1.000     C          -0.160947           
         C6        1.0000    0.72300   0.52700   0.72300   Biso      1.000     C          -0.16880799999999999          
         C7        1.0000    0.22300   0.52700   0.22300   Biso      1.000     C          -0.161904           
         C8        1.0000    0.02700   0.22300   0.72300   Biso      1.000     C          -0.162869           
         C9        1.0000    0.52700   0.52700   0.52700   Biso      1.000     C          -0.16358399999999998          
         C10       1.0000    0.52700   0.22300   0.22300   Biso      1.000     C          -0.161947           
         C11       1.0000    0.72300   0.72300   0.52700   Biso      1.000     C          -0.16616199999999998          
         C12       1.0000    0.22300   0.02700   0.72300   Biso      1.000     C          -0.16688  
         C13       1.0000    0.02700   0.72300   0.22300   Biso      1.000     C          -0.160217           
         C14       1.0000    0.52700   0.72300   0.72300   Biso      1.000     C          -0.164922           
         C15       1.0000    0.77700   0.27700   0.97300   Biso      1.000     C          -0.16759100000000002          
         C16       1.0000    0.77700   0.77700   0.47300   Biso      1.000     C          -0.160668           
         C17       1.0000    0.27700   0.97300   0.77700   Biso      1.000     C          -0.163467           
         C18       1.0000    0.72300   0.22300   0.02700   Biso      1.000     C          -0.16195  
         C19       1.0000    0.22300   0.22300   0.52700   Biso      1.000     C          -0.168933           
         C20       1.0000    0.47300   0.77700   0.77700   Biso      1.000     C          -0.161159           
         C21       1.0000    0.47300   0.27700   0.27700   Biso      1.000     C          -0.16408499999999998          
         C22       1.0000    0.47300   0.47300   0.47300   Biso      1.000     C          -0.161374           
         C23       1.0000    0.97300   0.77700   0.27700   Biso      1.000     C          -0.159719           
         C24       1.0000    0.97300   0.47300   0.97300   Biso      1.000     C          -0.166049           
         C25       1.0000    0.97300   0.97300   0.47300   Biso      1.000     C          -0.160405           
         C26       1.0000    0.27700   0.77700   0.97300   Biso      1.000     C          -0.16247  
         C27       1.0000    0.47300   0.97300   0.97300   Biso      1.000     C          -0.161528           
         C28       1.0000    0.77700   0.97300   0.27700   Biso      1.000     C          -0.161237           
         C29       1.0000    0.77700   0.47300   0.77700   Biso      1.000     C          -0.169652           
         C30       1.0000    0.27700   0.47300   0.27700   Biso      1.000     C          -0.163417           
         C31       1.0000    0.97300   0.27700   0.77700   Biso      1.000     C          -0.164017           
         C32       1.0000    0.27700   0.27700   0.47300   Biso      1.000     C          -0.16689600000000002          
         Cd1       1.0000    0.12500   0.12500   0.62500   Biso      1.000     Cd          0.65886   
         Cd2       1.0000    0.62500   0.12500   0.12500   Biso      1.000     Cd          0.649513  
         Cd3       1.0000    0.62500   0.62500   0.62500   Biso      1.000     Cd          0.6580699999999999  
         Cd4       1.0000    0.12500   0.62500   0.12500   Biso      1.000     Cd          0.648684  
         Cd5       1.0000    0.87500   0.37500   0.87500   Biso      1.000     Cd          0.660219  
         Cd6       1.0000    0.87500   0.87500   0.37500   Biso      1.000     Cd          0.648204  
         Cd7       1.0000    0.37500   0.87500   0.87500   Biso      1.000     Cd          0.651191  
         Cd8       1.0000    0.37500   0.37500   0.37500   Biso      1.000     Cd          0.655179 