
##########################################################################
#               Crystallographic Information Format file
#               Produced by PyCifRW module
#
#  This is a CIF file.  CIF has been adopted by the International
#  Union of Crystallography as the standard for data archiving and
#  transmission.
#
#  For information on this file format, follow the CIF links at
#  http://www.iucr.org
##########################################################################

data_image0

_cell_length_a                          10.334
_cell_length_b                          11.672
_cell_length_c                          20.341
_cell_angle_alpha                       90
_cell_angle_beta                        90
_cell_angle_gamma                       90
_symmetry_space_group_name_H-M          'P 1'
_symmetry_int_tables_number             1
loop_
  _symmetry_equiv_pos_as_xyz
         'x, y, z' 
loop_
  _atom_site_label
  _atom_site_occupancy
  _atom_site_fract_x
  _atom_site_fract_y
  _atom_site_fract_z
  _atom_site_thermal_displace_type
  _atom_site_B_iso_or_equiv
  _atom_site_type_symbol
  _atom_site_charge
         C1        1.0000    0.38390   0.49210   0.23060   Biso      1.000     C          -0.11218399999999999          
         C2        1.0000    0.72370   0.05640   0.60387   Biso      1.000     C          0.608758  
         C3        1.0000    0.26640   0.09420   0.39372   Biso      1.000     C          -0.518162           
         C4        1.0000    0.26000   0.10490   0.46835   Biso      1.000     C          0.143786  
         C5        1.0000    0.13750   0.16880   0.48743   Biso      1.000     C          0.606781  
         C6        1.0000    0.29480   0.55410   0.12083   Biso      1.000     C          0.617273  
         C7        1.0000    0.27900   0.52930   0.19364   Biso      1.000     C          -0.024096           
         C8        1.0000    0.15760   0.54240   0.22264   Biso      1.000     C          -0.120216           
         C9        1.0000    0.14050   0.51730   0.28840   Biso      1.000     C          -0.10780899999999999          
         C10       1.0000    0.36630   0.46480   0.29688   Biso      1.000     C          -0.105476           
         C11       1.0000    0.24390   0.47580   0.32549   Biso      1.000     C          -0.025236           
         C12       1.0000    0.22370   0.44360   0.39613   Biso      1.000     C          0.608761  
         C13       1.0000    0.23360   0.90580   0.89372   Biso      1.000     C          -0.518162           
         C14       1.0000    0.24000   0.89510   0.96835   Biso      1.000     C          0.143786  
         C15       1.0000    0.36250   0.83120   0.98743   Biso      1.000     C          0.606781  
         C16       1.0000    0.20520   0.44590   0.62083   Biso      1.000     C          0.617273  
         C17       1.0000    0.34240   0.45760   0.72264   Biso      1.000     C          -0.120216           
         C18       1.0000    0.11610   0.50790   0.73060   Biso      1.000     C          -0.11218399999999999          
         C19       1.0000    0.74390   0.02420   0.67451   Biso      1.000     C          -0.025245           
         C20       1.0000    0.35950   0.48270   0.78840   Biso      1.000     C          -0.10780899999999999          
         C21       1.0000    0.86630   0.03520   0.70312   Biso      1.000     C          -0.105478           
         C22       1.0000    0.88390   0.00790   0.76940   Biso      1.000     C          -0.11218499999999999          
         C23       1.0000    0.73360   0.59420   0.10628   Biso      1.000     C          -0.5181640000000001           
         C24       1.0000    0.74000   0.60490   0.03165   Biso      1.000     C          0.143785  
         C25       1.0000    0.86250   0.66880   0.01257   Biso      1.000     C          0.6067899999999999  
         C26       1.0000    0.70520   0.05410   0.37917   Biso      1.000     C          0.61727   
         C27       1.0000    0.72100   0.02930   0.30636   Biso      1.000     C          -0.024089           
         C28       1.0000    0.84240   0.04240   0.27736   Biso      1.000     C          -0.12021400000000002          
         C29       1.0000    0.61610   0.99210   0.26940   Biso      1.000     C          -0.11218299999999999          
         C30       1.0000    0.85950   0.01730   0.21160   Biso      1.000     C          -0.10780899999999999          
         C31       1.0000    0.63370   0.96480   0.20312   Biso      1.000     C          -0.105478           
         C32       1.0000    0.75610   0.97580   0.17451   Biso      1.000     C          -0.025244           
         C33       1.0000    0.77630   0.94360   0.10387   Biso      1.000     C          0.608758  
         C34       1.0000    0.76640   0.40580   0.60628   Biso      1.000     C          -0.5181640000000001           
         C35       1.0000    0.76000   0.39510   0.53165   Biso      1.000     C          0.143785  
         C36       1.0000    0.63750   0.33120   0.51257   Biso      1.000     C          0.6067899999999999  
         C37       1.0000    0.79480   0.94590   0.87917   Biso      1.000     C          0.617269  
         C38       1.0000    0.77900   0.97070   0.80636   Biso      1.000     C          -0.024087           
         C39       1.0000    0.65760   0.95760   0.77736   Biso      1.000     C          -0.12021400000000002          
         C40       1.0000    0.64050   0.98270   0.71160   Biso      1.000     C          -0.10780799999999999          
         C41       1.0000    0.13370   0.53520   0.79688   Biso      1.000     C          -0.105476           
         C42       1.0000    0.22100   0.47070   0.69364   Biso      1.000     C          -0.024096           
         C43       1.0000    0.27630   0.55640   0.89613   Biso      1.000     C          0.608762  
         C44       1.0000    0.25610   0.52420   0.82549   Biso      1.000     C          -0.025236           
         H1        1.0000    0.19180   0.05330   0.37820   Biso      1.000     H          0.171043  
         H2        1.0000    0.34330   0.05330   0.38160   Biso      1.000     H          0.164906  
         H3        1.0000    0.25590   0.02770   0.48720   Biso      1.000     H          0.068373  
         H4        1.0000    0.08810   0.56800   0.19760   Biso      1.000     H          0.139293  
         H5        1.0000    0.46520   0.48540   0.21140   Biso      1.000     H          0.121571  
         H6        1.0000    0.43590   0.43930   0.32190   Biso      1.000     H          0.12485299999999999           
         H7        1.0000    0.23190   0.83080   0.87440   Biso      1.000     H          0.165733  
         H8        1.0000    0.30820   0.94670   0.87820   Biso      1.000     H          0.171043  
         H9        1.0000    0.15670   0.94670   0.88160   Biso      1.000     H          0.164906  
         H10       1.0000    0.24410   0.97230   0.98720   Biso      1.000     H          0.068373  
         H11       1.0000    0.41190   0.43200   0.69760   Biso      1.000     H          0.139293  
         H12       1.0000    0.03480   0.51460   0.71140   Biso      1.000     H          0.121571  
         H13       1.0000    0.44000   0.47190   0.80800   Biso      1.000     H          0.122776  
         H14       1.0000    0.06410   0.56070   0.82190   Biso      1.000     H          0.12485299999999999           
         H15       1.0000    0.26810   0.16920   0.37440   Biso      1.000     H          0.165733  
         H16       1.0000    0.93590   0.06070   0.67810   Biso      1.000     H          0.124851  
         H17       1.0000    0.06000   0.52810   0.30800   Biso      1.000     H          0.122777  
         H18       1.0000    0.96520   0.01460   0.78860   Biso      1.000     H          0.121572  
         H19       1.0000    0.56000   0.97190   0.69200   Biso      1.000     H          0.122776  
         H20       1.0000    0.80820   0.55330   0.12180   Biso      1.000     H          0.171044  
         H21       1.0000    0.65670   0.55330   0.11840   Biso      1.000     H          0.164907  
         H22       1.0000    0.74410   0.52770   0.01280   Biso      1.000     H          0.068377  
         H23       1.0000    0.91190   0.06800   0.30240   Biso      1.000     H          0.139296  
         H24       1.0000    0.53480   0.98540   0.28860   Biso      1.000     H          0.121572  
         H25       1.0000    0.94000   0.02810   0.19200   Biso      1.000     H          0.122776  
         H26       1.0000    0.73190   0.66920   0.12560   Biso      1.000     H          0.165731  
         H27       1.0000    0.76810   0.33080   0.62560   Biso      1.000     H          0.165731  
         H28       1.0000    0.69180   0.44670   0.62180   Biso      1.000     H          0.171044  
         H29       1.0000    0.84330   0.44670   0.61840   Biso      1.000     H          0.164907  
         H30       1.0000    0.75590   0.47230   0.51280   Biso      1.000     H          0.068377  
         H31       1.0000    0.58810   0.93200   0.80240   Biso      1.000     H          0.139296  
         H32       1.0000    0.56410   0.93930   0.17810   Biso      1.000     H          0.124851  
         O1        1.0000    0.14960   0.26876   0.50984   Biso      1.000     O          -0.580025           
         O2        1.0000    0.03130   0.11970   0.47586   Biso      1.000     O          -0.525096           
         O3        1.0000    0.37070   0.16134   0.49421   Biso      1.000     O          -0.6302439999999999           
         O4        1.0000    0.82340   0.08290   0.57101   Biso      1.000     O          -0.56465  
         O5        1.0000    0.60910   0.05380   0.58297   Biso      1.000     O          -0.571924           
         O6        1.0000    0.90520   0.96010   0.90334   Biso      1.000     O          -0.565311           
         O7        1.0000    0.69440   0.91620   0.90903   Biso      1.000     O          -0.5537979999999999           
         O8        1.0000    0.59480   0.03990   0.40334   Biso      1.000     O          -0.565311           
         O9        1.0000    0.80560   0.08380   0.40903   Biso      1.000     O          -0.5537979999999999           
         O10       1.0000    0.89090   0.94620   0.08297   Biso      1.000     O          -0.571924           
         O11       1.0000    0.67660   0.91710   0.07101   Biso      1.000     O          -0.56465  
         O12       1.0000    0.87070   0.33866   0.50579   Biso      1.000     O          -0.630243           
         O13       1.0000    0.53130   0.38030   0.52414   Biso      1.000     O          -0.525115           
         O14       1.0000    0.64960   0.23124   0.49016   Biso      1.000     O          -0.580018           
         O15       1.0000    0.19440   0.58380   0.09097   Biso      1.000     O          -0.553784           
         O16       1.0000    0.85040   0.76876   0.99016   Biso      1.000     O          -0.580018           
         O17       1.0000    0.40520   0.53990   0.09666   Biso      1.000     O          -0.565304           
         O18       1.0000    0.62930   0.66134   0.00579   Biso      1.000     O          -0.630243           
         O19       1.0000    0.32340   0.41710   0.42899   Biso      1.000     O          -0.56467  
         O20       1.0000    0.10910   0.44620   0.41703   Biso      1.000     O          -0.57193  
         O21       1.0000    0.17660   0.58290   0.92899   Biso      1.000     O          -0.56467  
         O22       1.0000    0.39090   0.55380   0.91703   Biso      1.000     O          -0.57193  
         O23       1.0000    0.09480   0.46010   0.59666   Biso      1.000     O          -0.565304           
         O24       1.0000    0.96870   0.61970   0.02414   Biso      1.000     O          -0.525115           
         O25       1.0000    0.35040   0.73124   0.00984   Biso      1.000     O          -0.580025           
         O26       1.0000    0.46870   0.88030   0.97586   Biso      1.000     O          -0.525096           
         O27       1.0000    0.12930   0.83866   0.99421   Biso      1.000     O          -0.6302439999999999           
         O28       1.0000    0.30560   0.41620   0.59097   Biso      1.000     O          -0.553784           
         Zn1       1.0000    0.96562   0.91947   0.99283   Biso      1.000     Zn          0.985243  
         Zn2       1.0000    0.65269   0.82513   0.98854   Biso      1.000     Zn          0.9638260000000001  
         Zn3       1.0000    0.53438   0.08053   0.49283   Biso      1.000     Zn          0.985244  
         Zn4       1.0000    0.84731   0.17487   0.48854   Biso      1.000     Zn          0.9638260000000001  
         Zn5       1.0000    0.03438   0.41947   0.50717   Biso      1.000     Zn          0.9852489999999999  
         Zn6       1.0000    0.34731   0.32513   0.51147   Biso      1.000     Zn          0.9638469999999999  
         Zn7       1.0000    0.46562   0.58053   0.00717   Biso      1.000     Zn          0.9852489999999999  
         Zn8       1.0000    0.15269   0.67487   0.01147   Biso      1.000     Zn          0.9638469999999999 