
##########################################################################
#               Crystallographic Information Format file
#               Produced by PyCifRW module
#
#  This is a CIF file.  CIF has been adopted by the International
#  Union of Crystallography as the standard for data archiving and
#  transmission.
#
#  For information on this file format, follow the CIF links at
#  http://www.iucr.org
##########################################################################

data_image0

_cell_length_a                          7.4466
_cell_length_b                          14.3821
_cell_length_c                          20.914
_cell_angle_alpha                       90
_cell_angle_beta                        90
_cell_angle_gamma                       90
_symmetry_space_group_name_H-M          'P 1'
_symmetry_int_tables_number             1
loop_
  _symmetry_equiv_pos_as_xyz
         'x, y, z' 
loop_
  _atom_site_label
  _atom_site_occupancy
  _atom_site_fract_x
  _atom_site_fract_y
  _atom_site_fract_z
  _atom_site_thermal_displace_type
  _atom_site_B_iso_or_equiv
  _atom_site_type_symbol
  _atom_site_charge
         C1        1.0000    0.41847   0.80724   0.69851   Biso      1.000     C          0.06454700000000001           
         C2        1.0000    0.44735   0.33027   0.25113   Biso      1.000     C          -0.070633           
         C3        1.0000    0.44335   0.37565   0.31091   Biso      1.000     C          -0.075513           
         C4        1.0000    0.49671   0.33038   0.36749   Biso      1.000     C          -0.024493           
         C5        1.0000    0.55297   0.23717   0.36197   Biso      1.000     C          -0.13530699999999998          
         C6        1.0000    0.56008   0.19080   0.30203   Biso      1.000     C          0.066819  
         C7        1.0000    0.50421   0.23720   0.24515   Biso      1.000     C          -0.045594           
         C8        1.0000    0.89384   0.17867   0.03971   Biso      1.000     C          0.038465  
         C9        1.0000    0.89340   0.03564   0.09275   Biso      1.000     C          0.050364  
         C10       1.0000    0.89108   0.82289   0.95294   Biso      1.000     C          0.038722  
         C11       1.0000    0.49762   0.18976   0.18037   Biso      1.000     C          0.559774  
         C12       1.0000    0.89071   0.97324   0.91057   Biso      1.000     C          0.044738  
         C13       1.0000    0.08766   0.53512   0.40809   Biso      1.000     C          0.039917  
         C14       1.0000    0.09449   0.31981   0.54092   Biso      1.000     C          0.041233  
         C15       1.0000    0.09471   0.46410   0.59232   Biso      1.000     C          0.045061000000000004          
         C16       1.0000    0.08292   0.82306   0.95301   Biso      1.000     C          0.040568  
         C17       1.0000    0.08246   0.97356   0.91094   Biso      1.000     C          0.047389999999999995          
         C18       1.0000    0.08600   0.17869   0.04005   Biso      1.000     C          0.038245  
         C19       1.0000    0.08492   0.03553   0.09288   Biso      1.000     C          0.042831  
         C20       1.0000    0.90231   0.32003   0.54088   Biso      1.000     C          0.040323000000000005          
         C21       1.0000    0.90322   0.46450   0.59199   Biso      1.000     C          0.047139999999999994          
         C22       1.0000    0.08885   0.67910   0.45985   Biso      1.000     C          0.038316  
         C23       1.0000    0.49521   0.37917   0.43181   Biso      1.000     C          0.5653590000000001  
         C24       1.0000    0.47875   0.76209   0.75527   Biso      1.000     C          -0.043764           
         C25       1.0000    0.42820   0.76099   0.63857   Biso      1.000     C          -0.134526           
         C26       1.0000    0.48948   0.12078   0.93205   Biso      1.000     C          0.562126  
         C27       1.0000    0.50169   0.30955   0.68054   Biso      1.000     C          0.558235  
         C28       1.0000    0.44184   0.17017   0.75147   Biso      1.000     C          -0.070133           
         C29       1.0000    0.43570   0.12491   0.81131   Biso      1.000     C          -0.075157           
         C30       1.0000    0.49341   0.16923   0.86768   Biso      1.000     C          -0.026389999999999997         
         C31       1.0000    0.55702   0.26110   0.86193   Biso      1.000     C          -0.13527899999999998          
         C32       1.0000    0.56706   0.30710   0.80192   Biso      1.000     C          0.06639   
         C33       1.0000    0.50594   0.26194   0.74528   Biso      1.000     C          -0.043733999999999995         
         C34       1.0000    0.48891   0.87914   0.06834   Biso      1.000     C          0.566281  
         C35       1.0000    0.49862   0.68962   0.31991   Biso      1.000     C          0.559692  
         C36       1.0000    0.44761   0.83031   0.24930   Biso      1.000     C          -0.070008           
         C37       1.0000    0.44181   0.87567   0.18952   Biso      1.000     C          -0.076119           
         C38       1.0000    0.49218   0.83022   0.13265   Biso      1.000     C          -0.022747           
         C39       1.0000    0.54734   0.73679   0.13793   Biso      1.000     C          -0.134501           
         C40       1.0000    0.55628   0.69042   0.19787   Biso      1.000     C          0.066997  
         C41       1.0000    0.50342   0.73703   0.25504   Biso      1.000     C          -0.046169           
         C42       1.0000    0.49435   0.62013   0.56872   Biso      1.000     C          0.564467  
         C43       1.0000    0.48344   0.80993   0.81992   Biso      1.000     C          0.5595640000000001  
         C44       1.0000    0.54160   0.67007   0.74928   Biso      1.000     C          -0.071773           
         C45       1.0000    0.54740   0.62459   0.68953   Biso      1.000     C          -0.07585800000000001          
         C46       1.0000    0.49065   0.66888   0.63301   Biso      1.000     C          -0.024243           
         C47       1.0000    0.89667   0.67920   0.46011   Biso      1.000     C          0.041172  
         C48       1.0000    0.89616   0.53539   0.40809   Biso      1.000     C          0.051313  
         Cd1       1.0000    0.49001   0.11007   0.07558   Biso      1.000     Cd          0.9714520000000001  
         Cd2       1.0000    0.48697   0.89034   0.92446   Biso      1.000     Cd          0.970354  
         Cd3       1.0000    0.49269   0.60996   0.42482   Biso      1.000     Cd          0.970239  
         Cd4       1.0000    0.49848   0.38937   0.57575   Biso      1.000     Cd          0.97095   
         H1        1.0000    0.38082   0.05575   0.81346   Biso      1.000     H          0.122555  
         H2        1.0000    0.39262   0.13355   0.70979   Biso      1.000     H          0.12927   
         H3        1.0000    0.82325   0.23731   0.01931   Biso      1.000     H          0.12168399999999999           
         H4        1.0000    0.82270   0.97878   0.11533   Biso      1.000     H          0.11552   
         H5        1.0000    0.82035   0.76149   0.96900   Biso      1.000     H          0.12206700000000001           
         H6        1.0000    0.82054   0.03316   0.89196   Biso      1.000     H          0.110479  
         H7        1.0000    0.16004   0.73796   0.47969   Biso      1.000     H          0.120773  
         H8        1.0000    0.15721   0.47736   0.38638   Biso      1.000     H          0.10581900000000001           
         H9        1.0000    0.16518   0.26068   0.52125   Biso      1.000     H          0.12286500000000002           
         H10       1.0000    0.16517   0.52148   0.61434   Biso      1.000     H          0.11140499999999999           
         H11       1.0000    0.15394   0.76173   0.96902   Biso      1.000     H          0.12314100000000001           
         H12       1.0000    0.15710   0.23727   0.01979   Biso      1.000     H          0.122964  
         H13       1.0000    0.15450   0.97819   0.11508   Biso      1.000     H          0.10648900000000001           
         H14       1.0000    0.15201   0.03399   0.89305   Biso      1.000     H          0.106126  
         H15       1.0000    0.83355   0.52246   0.61338   Biso      1.000     H          0.107478  
         H16       1.0000    0.60558   0.29653   0.90424   Biso      1.000     H          0.130923  
         H17       1.0000    0.40470   0.86825   0.29133   Biso      1.000     H          0.13133   
         H18       1.0000    0.39286   0.94600   0.18794   Biso      1.000     H          0.12016900000000001           
         H19       1.0000    0.58959   0.70012   0.09527   Biso      1.000     H          0.13238699999999998           
         H20       1.0000    0.59008   0.63342   0.79106   Biso      1.000     H          0.128781  
         H21       1.0000    0.83122   0.26100   0.52124   Biso      1.000     H          0.12101500000000001           
         H22       1.0000    0.38033   0.79646   0.59617   Biso      1.000     H          0.130855  
         H23       1.0000    0.60115   0.55522   0.68761   Biso      1.000     H          0.121529  
         H24       1.0000    0.40220   0.36802   0.20931   Biso      1.000     H          0.13226400000000002           
         H25       1.0000    0.39348   0.44579   0.31274   Biso      1.000     H          0.12058699999999999           
         H26       1.0000    0.59749   0.20067   0.40441   Biso      1.000     H          0.13153199999999998           
         H27       1.0000    0.82551   0.47823   0.38586   Biso      1.000     H          0.11409100000000001           
         H28       1.0000    0.82610   0.73816   0.48009   Biso      1.000     H          0.123054  
         N1        1.0000    0.62635   0.59746   0.19959   Biso      1.000     N          0.48223599999999994           
         N2        1.0000    0.33885   0.89808   0.70081   Biso      1.000     N          0.48612   
         N3        1.0000    0.80010   0.60750   0.43387   Biso      1.000     N          -0.17457999999999999          
         N4        1.0000    0.63141   0.09812   0.29994   Biso      1.000     N          0.48305699999999996           
         N5        1.0000    0.64781   0.39767   0.79941   Biso      1.000     N          0.483914  
         N6        1.0000    0.80635   0.39219   0.56682   Biso      1.000     N          -0.177925           
         N7        1.0000    0.18468   0.60726   0.43342   Biso      1.000     N          -0.178993           
         N8        1.0000    0.17912   0.89818   0.93170   Biso      1.000     N          -0.177176           
         N9        1.0000    0.19092   0.39168   0.56703   Biso      1.000     N          -0.177423           
         N10       1.0000    0.79456   0.89777   0.93140   Biso      1.000     N          -0.17638800000000002          
         N11       1.0000    0.79732   0.10730   0.06642   Biso      1.000     N          -0.176118           
         N12       1.0000    0.18190   0.10733   0.06704   Biso      1.000     N          -0.179911           
         O1        1.0000    0.48859   0.83198   0.01599   Biso      1.000     O          -0.5684560000000001           
         O2        1.0000    0.48896   0.96804   0.06407   Biso      1.000     O          -0.587688           
         O3        1.0000    0.49215   0.66746   0.51650   Biso      1.000     O          -0.567925           
         O4        1.0000    0.49628   0.53127   0.56432   Biso      1.000     O          -0.5861350000000001           
         O5        1.0000    0.49824   0.33188   0.48405   Biso      1.000     O          -0.569001           
         O6        1.0000    0.49406   0.46804   0.43620   Biso      1.000     O          -0.58706  
         O7        1.0000    0.75666   0.57685   0.23855   Biso      1.000     O          -0.331956           
         O8        1.0000    0.49256   0.73294   0.37285   Biso      1.000     O          -0.558476           
         O9        1.0000    0.49829   0.60222   0.32697   Biso      1.000     O          -0.572551           
         O10       1.0000    0.77419   0.41475   0.75807   Biso      1.000     O          -0.33568000000000003          
         O11       1.0000    0.49958   0.26634   0.62752   Biso      1.000     O          -0.556033           
         O12       1.0000    0.59230   0.03932   0.34513   Biso      1.000     O          -0.339277           
         O13       1.0000    0.21223   0.91567   0.74196   Biso      1.000     O          -0.335012           
         O14       1.0000    0.48531   0.76696   0.87305   Biso      1.000     O          -0.559288           
         O15       1.0000    0.48744   0.89742   0.82654   Biso      1.000     O          -0.572724           
         O16       1.0000    0.62076   0.45653   0.84566   Biso      1.000     O          -0.33633  
         O17       1.0000    0.58455   0.53882   0.15461   Biso      1.000     O          -0.339226           
         O18       1.0000    0.36713   0.95675   0.65453   Biso      1.000     O          -0.336876           
         O19       1.0000    0.76032   0.07798   0.26028   Biso      1.000     O          -0.332992           
         O20       1.0000    0.49007   0.23305   0.12745   Biso      1.000     O          -0.5575869999999999           
         O21       1.0000    0.49732   0.10236   0.17337   Biso      1.000     O          -0.5728850000000001           
         O22       1.0000    0.48811   0.03197   0.93674   Biso      1.000     O          -0.585662           
         O23       1.0000    0.49830   0.39702   0.67370   Biso      1.000     O          -0.57398  
         O24       1.0000    0.49118   0.16825   0.98418   Biso      1.000     O          -0.568267 