
##########################################################################
#               Crystallographic Information Format file
#               Produced by PyCifRW module
#
#  This is a CIF file.  CIF has been adopted by the International
#  Union of Crystallography as the standard for data archiving and
#  transmission.
#
#  For information on this file format, follow the CIF links at
#  http://www.iucr.org
##########################################################################

data_image0

_cell_length_a                          18.2337
_cell_length_b                          11.3228
_cell_length_c                          18.7067
_cell_angle_alpha                       90
_cell_angle_beta                        108.39
_cell_angle_gamma                       90
_symmetry_space_group_name_H-M          'P 1'
_symmetry_int_tables_number             1
loop_
  _symmetry_equiv_pos_as_xyz
         'x, y, z' 
loop_
  _atom_site_label
  _atom_site_occupancy
  _atom_site_fract_x
  _atom_site_fract_y
  _atom_site_fract_z
  _atom_site_thermal_displace_type
  _atom_site_B_iso_or_equiv
  _atom_site_type_symbol
  _atom_site_charge
         C1        1.0000    0.61730   0.07310   0.79100   Biso      1.000     C          0.660274  
         C2        1.0000    0.76690   0.68180   0.71960   Biso      1.000     C          -0.243184           
         C3        1.0000    0.69820   0.74520   0.68770   Biso      1.000     C          0.321218  
         C4        1.0000    0.38580   0.14910   0.97570   Biso      1.000     C          0.678996  
         C5        1.0000    0.81660   0.29660   0.48840   Biso      1.000     C          -0.119724           
         C6        1.0000    0.28950   0.15890   0.04470   Biso      1.000     C          -0.230718           
         C7        1.0000    0.27680   0.29710   0.94340   Biso      1.000     C          0.284256  
         C8        1.0000    0.31660   0.20340   0.98840   Biso      1.000     C          -0.119722           
         C9        1.0000    0.77680   0.20290   0.44340   Biso      1.000     C          0.284256  
         C10       1.0000    0.78950   0.34110   0.54470   Biso      1.000     C          -0.230716           
         C11       1.0000    0.19820   0.75480   0.18770   Biso      1.000     C          0.321217  
         C12       1.0000    0.88580   0.35090   0.47570   Biso      1.000     C          0.678996  
         C13       1.0000    0.26690   0.81820   0.21960   Biso      1.000     C          -0.243184           
         C14       1.0000    0.16850   0.74270   0.10940   Biso      1.000     C          -0.150623           
         C15       1.0000    0.30540   0.86850   0.17390   Biso      1.000     C          -0.028625           
         C16       1.0000    0.27380   0.86010   0.09590   Biso      1.000     C          -0.164973           
         C17       1.0000    0.10130   0.66410   0.07100   Biso      1.000     C          0.701686  
         C18       1.0000    0.20540   0.79960   0.06480   Biso      1.000     C          -0.063034           
         C19       1.0000    0.38270   0.92690   0.20900   Biso      1.000     C          0.660274  
         C20       1.0000    0.27380   0.13990   0.59590   Biso      1.000     C          -0.164973           
         C21       1.0000    0.79460   0.20040   0.93520   Biso      1.000     C          -0.063035           
         C22       1.0000    0.89870   0.33590   0.92900   Biso      1.000     C          0.701686  
         C23       1.0000    0.72620   0.13990   0.90410   Biso      1.000     C          -0.164973           
         C24       1.0000    0.69460   0.13150   0.82610   Biso      1.000     C          -0.028626           
         C25       1.0000    0.66850   0.75730   0.60940   Biso      1.000     C          -0.150623           
         C26       1.0000    0.80540   0.63150   0.67390   Biso      1.000     C          -0.028625           
         C27       1.0000    0.77380   0.63990   0.59590   Biso      1.000     C          -0.164973           
         C28       1.0000    0.60130   0.83590   0.57100   Biso      1.000     C          0.701686  
         C29       1.0000    0.20540   0.20040   0.56480   Biso      1.000     C          -0.063034           
         C30       1.0000    0.38270   0.07310   0.70900   Biso      1.000     C          0.660274  
         C31       1.0000    0.30540   0.13150   0.67390   Biso      1.000     C          -0.028626           
         C32       1.0000    0.16850   0.25730   0.60940   Biso      1.000     C          -0.150623           
         C33       1.0000    0.26690   0.18180   0.71960   Biso      1.000     C          -0.243183           
         C34       1.0000    0.19820   0.24520   0.68770   Biso      1.000     C          0.321217  
         C35       1.0000    0.31660   0.79660   0.48840   Biso      1.000     C          -0.119724           
         C36       1.0000    0.27680   0.70290   0.44340   Biso      1.000     C          0.284256  
         C37       1.0000    0.28950   0.84110   0.54470   Biso      1.000     C          -0.230716           
         C38       1.0000    0.88580   0.64910   0.97570   Biso      1.000     C          0.678996  
         C39       1.0000    0.78950   0.65890   0.04470   Biso      1.000     C          -0.230718           
         C40       1.0000    0.83150   0.25730   0.89060   Biso      1.000     C          -0.150623           
         C41       1.0000    0.77680   0.79710   0.94340   Biso      1.000     C          0.284256  
         C42       1.0000    0.38580   0.85090   0.47570   Biso      1.000     C          0.678996  
         C43       1.0000    0.69820   0.25480   0.18770   Biso      1.000     C          0.321217  
         C44       1.0000    0.76690   0.31820   0.21960   Biso      1.000     C          -0.243184           
         C45       1.0000    0.66850   0.24270   0.10940   Biso      1.000     C          -0.150623           
         C46       1.0000    0.80540   0.36850   0.17390   Biso      1.000     C          -0.028625           
         C47       1.0000    0.88270   0.57310   0.70900   Biso      1.000     C          0.660274  
         C48       1.0000    0.77380   0.36010   0.09590   Biso      1.000     C          -0.164973           
         C49       1.0000    0.60130   0.16410   0.07100   Biso      1.000     C          0.701686  
         C50       1.0000    0.70540   0.70040   0.56480   Biso      1.000     C          -0.063034           
         C51       1.0000    0.70540   0.29960   0.06480   Biso      1.000     C          -0.063034           
         C52       1.0000    0.88270   0.42690   0.20900   Biso      1.000     C          0.660274  
         C53       1.0000    0.81660   0.70340   0.98840   Biso      1.000     C          -0.119722           
         C54       1.0000    0.73310   0.18180   0.78040   Biso      1.000     C          -0.243183           
         C55       1.0000    0.10130   0.33590   0.57100   Biso      1.000     C          0.701686  
         C56       1.0000    0.22620   0.63990   0.90410   Biso      1.000     C          -0.164973           
         C57       1.0000    0.79460   0.79960   0.43520   Biso      1.000     C          -0.063035           
         C58       1.0000    0.18340   0.29660   0.01160   Biso      1.000     C          -0.119725           
         C59       1.0000    0.89870   0.66410   0.42900   Biso      1.000     C          0.701686  
         C60       1.0000    0.11730   0.57310   0.79100   Biso      1.000     C          0.660274  
         C61       1.0000    0.72620   0.86010   0.40410   Biso      1.000     C          -0.164973           
         C62       1.0000    0.29460   0.70040   0.93520   Biso      1.000     C          -0.063034           
         C63       1.0000    0.39870   0.83590   0.92900   Biso      1.000     C          0.701686  
         C64       1.0000    0.11420   0.64910   0.52430   Biso      1.000     C          0.678996  
         C65       1.0000    0.69460   0.86850   0.32610   Biso      1.000     C          -0.028626           
         C66       1.0000    0.83150   0.74270   0.39060   Biso      1.000     C          -0.150623           
         C67       1.0000    0.61420   0.14910   0.52430   Biso      1.000     C          0.678996  
         C68       1.0000    0.19460   0.63150   0.82610   Biso      1.000     C          -0.028626           
         C69       1.0000    0.71050   0.15890   0.45530   Biso      1.000     C          -0.230715           
         C70       1.0000    0.72320   0.29710   0.55660   Biso      1.000     C          0.284258  
         C71       1.0000    0.68340   0.20340   0.51160   Biso      1.000     C          -0.119723           
         C72       1.0000    0.33150   0.75730   0.89060   Biso      1.000     C          -0.150623           
         C73       1.0000    0.23310   0.68180   0.78040   Biso      1.000     C          -0.243183           
         C74       1.0000    0.73310   0.81820   0.28040   Biso      1.000     C          -0.243183           
         C75       1.0000    0.80180   0.75480   0.31230   Biso      1.000     C          0.321218  
         C76       1.0000    0.11730   0.42690   0.29100   Biso      1.000     C          0.660274  
         C77       1.0000    0.29460   0.29960   0.43520   Biso      1.000     C          -0.063035           
         C78       1.0000    0.61420   0.85090   0.02430   Biso      1.000     C          0.678996  
         C79       1.0000    0.72320   0.70290   0.05660   Biso      1.000     C          0.284258  
         C80       1.0000    0.21050   0.65890   0.45530   Biso      1.000     C          -0.230715           
         C81       1.0000    0.22320   0.79710   0.55660   Biso      1.000     C          0.284258  
         C82       1.0000    0.18340   0.70340   0.51160   Biso      1.000     C          -0.119723           
         C83       1.0000    0.11420   0.35090   0.02430   Biso      1.000     C          0.678996  
         C84       1.0000    0.80180   0.24520   0.81230   Biso      1.000     C          0.321217  
         C85       1.0000    0.68340   0.79660   0.01160   Biso      1.000     C          -0.119725           
         C86       1.0000    0.30180   0.25480   0.31230   Biso      1.000     C          0.321217  
         C87       1.0000    0.21050   0.34110   0.95530   Biso      1.000     C          -0.230713           
         C88       1.0000    0.61730   0.92690   0.29100   Biso      1.000     C          0.660274  
         C89       1.0000    0.30180   0.74520   0.81230   Biso      1.000     C          0.321218  
         C90       1.0000    0.22320   0.20290   0.05660   Biso      1.000     C          0.284258  
         C91       1.0000    0.33150   0.24270   0.39060   Biso      1.000     C          -0.150623           
         C92       1.0000    0.19460   0.36850   0.32610   Biso      1.000     C          -0.028626           
         C93       1.0000    0.71050   0.84110   0.95530   Biso      1.000     C          -0.230714           
         C94       1.0000    0.22620   0.36010   0.40410   Biso      1.000     C          -0.164972           
         C95       1.0000    0.39870   0.16410   0.42900   Biso      1.000     C          0.701686  
         C96       1.0000    0.23310   0.31820   0.28040   Biso      1.000     C          -0.243183           
         H1        1.0000    0.30470   0.78520   0.71580   Biso      1.000     H          0.30806   
         H2        1.0000    0.31660   0.90200   0.57510   Biso      1.000     H          0.131728  
         H3        1.0000    0.18340   0.40200   0.92490   Biso      1.000     H          0.131727  
         H4        1.0000    0.29860   0.10480   0.56490   Biso      1.000     H          0.111155  
         H5        1.0000    0.19530   0.28520   0.78420   Biso      1.000     H          0.308061  
         H6        1.0000    0.19440   0.19360   0.14370   Biso      1.000     H          0.314588  
         H7        1.0000    0.30560   0.69360   0.35630   Biso      1.000     H          0.314588  
         H8        1.0000    0.28670   0.17350   0.77160   Biso      1.000     H          0.136037  
         H9        1.0000    0.71330   0.17350   0.72840   Biso      1.000     H          0.136037  
         H10       1.0000    0.12700   0.36500   0.72500   Biso      1.000     H          0.324352  
         H11       1.0000    0.70140   0.10480   0.93510   Biso      1.000     H          0.111155  
         H12       1.0000    0.81640   0.20300   0.98740   Biso      1.000     H          0.117329  
         H13       1.0000    0.80470   0.28520   0.71580   Biso      1.000     H          0.308061  
         H14       1.0000    0.62700   0.86500   0.72500   Biso      1.000     H          0.324352  
         H15       1.0000    0.76440   0.09390   0.36710   Biso      1.000     H          0.307098  
         H16       1.0000    0.80560   0.19360   0.35630   Biso      1.000     H          0.314588  
         H17       1.0000    0.81660   0.40200   0.57510   Biso      1.000     H          0.131728  
         H18       1.0000    0.68340   0.90200   0.92490   Biso      1.000     H          0.131727  
         H19       1.0000    0.26440   0.59390   0.36710   Biso      1.000     H          0.307098  
         H20       1.0000    0.69440   0.69360   0.14370   Biso      1.000     H          0.314588  
         H21       1.0000    0.87300   0.36500   0.77500   Biso      1.000     H          0.324352  
         H22       1.0000    0.69530   0.78520   0.78420   Biso      1.000     H          0.308061  
         H23       1.0000    0.78670   0.67350   0.77160   Biso      1.000     H          0.136037  
         H24       1.0000    0.31640   0.70300   0.98740   Biso      1.000     H          0.117329  
         H25       1.0000    0.79860   0.60480   0.56490   Biso      1.000     H          0.111155  
         H26       1.0000    0.20140   0.60480   0.93510   Biso      1.000     H          0.111155  
         H27       1.0000    0.68360   0.70300   0.51260   Biso      1.000     H          0.117329  
         H28       1.0000    0.21330   0.67350   0.72840   Biso      1.000     H          0.136037  
         H29       1.0000    0.73560   0.59390   0.13290   Biso      1.000     H          0.307098  
         H30       1.0000    0.62700   0.13500   0.22500   Biso      1.000     H          0.324352  
         H31       1.0000    0.37300   0.86500   0.77500   Biso      1.000     H          0.324352  
         H32       1.0000    0.70140   0.89520   0.43510   Biso      1.000     H          0.111155  
         H33       1.0000    0.28670   0.82650   0.27160   Biso      1.000     H          0.136037  
         H34       1.0000    0.71330   0.82650   0.22840   Biso      1.000     H          0.136037  
         H35       1.0000    0.79860   0.39520   0.06490   Biso      1.000     H          0.111155  
         H36       1.0000    0.68360   0.29700   0.01260   Biso      1.000     H          0.117329  
         H37       1.0000    0.80470   0.71480   0.21580   Biso      1.000     H          0.308061  
         H38       1.0000    0.18360   0.20300   0.51260   Biso      1.000     H          0.117329  
         H39       1.0000    0.68340   0.09800   0.42490   Biso      1.000     H          0.131728  
         H40       1.0000    0.37300   0.13500   0.27500   Biso      1.000     H          0.324352  
         H41       1.0000    0.12700   0.63500   0.22500   Biso      1.000     H          0.324352  
         H42       1.0000    0.30560   0.30640   0.85630   Biso      1.000     H          0.314588  
         H43       1.0000    0.87300   0.63500   0.27500   Biso      1.000     H          0.324352  
         H44       1.0000    0.69440   0.30640   0.64370   Biso      1.000     H          0.314588  
         H45       1.0000    0.31660   0.09800   0.07510   Biso      1.000     H          0.131728  
         H46       1.0000    0.73560   0.40610   0.63290   Biso      1.000     H          0.307098  
         H47       1.0000    0.19530   0.71480   0.28420   Biso      1.000     H          0.308061  
         H48       1.0000    0.18360   0.79700   0.01260   Biso      1.000     H          0.117329  
         H49       1.0000    0.26440   0.40610   0.86710   Biso      1.000     H          0.307098  
         H50       1.0000    0.81640   0.79700   0.48740   Biso      1.000     H          0.117329  
         H51       1.0000    0.29860   0.89520   0.06490   Biso      1.000     H          0.111155  
         H52       1.0000    0.78670   0.32650   0.27160   Biso      1.000     H          0.136037  
         H53       1.0000    0.23560   0.90610   0.63290   Biso      1.000     H          0.307098  
         H54       1.0000    0.31640   0.29700   0.48740   Biso      1.000     H          0.117329  
         H55       1.0000    0.69530   0.21480   0.28420   Biso      1.000     H          0.308061  
         H56       1.0000    0.19440   0.80640   0.64370   Biso      1.000     H          0.314588  
         H57       1.0000    0.20140   0.39520   0.43510   Biso      1.000     H          0.111155  
         H58       1.0000    0.21330   0.32650   0.22840   Biso      1.000     H          0.136037  
         H59       1.0000    0.81660   0.59800   0.07510   Biso      1.000     H          0.131728  
         H60       1.0000    0.18340   0.59800   0.42490   Biso      1.000     H          0.131728  
         H61       1.0000    0.80560   0.80640   0.85630   Biso      1.000     H          0.314588  
         H62       1.0000    0.30470   0.21480   0.21580   Biso      1.000     H          0.308061  
         H63       1.0000    0.76440   0.90610   0.86710   Biso      1.000     H          0.307098  
         H64       1.0000    0.23560   0.09390   0.13290   Biso      1.000     H          0.307098  
         Ho1       1.0000    0.49871   0.06594   0.60307   Biso      1.000     Ho          2.131621  
         Ho2       1.0000    0.50129   0.06594   0.89693   Biso      1.000     Ho          2.131621  
         Ho3       1.0000    0.99871   0.43406   0.10307   Biso      1.000     Ho          2.131621  
         Ho4       1.0000    0.99871   0.56594   0.60307   Biso      1.000     Ho          2.131621  
         Ho5       1.0000    0.00129   0.43406   0.39693   Biso      1.000     Ho          2.131621  
         Ho6       1.0000    0.00129   0.56594   0.89693   Biso      1.000     Ho          2.131621  
         Ho7       1.0000    0.49871   0.93406   0.10307   Biso      1.000     Ho          2.131621  
         Ho8       1.0000    0.50129   0.93406   0.39693   Biso      1.000     Ho          2.131621  
         N1        1.0000    0.33480   0.20530   0.26140   Biso      1.000     N          -0.655849           
         N2        1.0000    0.20020   0.85560   0.61030   Biso      1.000     N          -0.685806           
         N3        1.0000    0.83480   0.29470   0.76140   Biso      1.000     N          -0.655849           
         N4        1.0000    0.29980   0.35560   0.88970   Biso      1.000     N          -0.685806           
         N5        1.0000    0.16520   0.70530   0.23860   Biso      1.000     N          -0.655849           
         N6        1.0000    0.20020   0.14440   0.11030   Biso      1.000     N          -0.685806           
         N7        1.0000    0.16520   0.29470   0.73860   Biso      1.000     N          -0.655849           
         N8        1.0000    0.79980   0.85560   0.88970   Biso      1.000     N          -0.685806           
         N9        1.0000    0.29980   0.64440   0.38970   Biso      1.000     N          -0.685806           
         N10       1.0000    0.66520   0.20530   0.23860   Biso      1.000     N          -0.655849           
         N11       1.0000    0.79980   0.14440   0.38970   Biso      1.000     N          -0.685806           
         N12       1.0000    0.33480   0.79470   0.76140   Biso      1.000     N          -0.655849           
         N13       1.0000    0.83480   0.70530   0.26140   Biso      1.000     N          -0.655849           
         N14       1.0000    0.70020   0.64440   0.11030   Biso      1.000     N          -0.685806           
         N15       1.0000    0.66520   0.79470   0.73860   Biso      1.000     N          -0.655849           
         N16       1.0000    0.70020   0.35560   0.61030   Biso      1.000     N          -0.685806           
         O1        1.0000    0.08860   0.57330   0.72140   Biso      1.000     O          -0.679778           
         O2        1.0000    0.58860   0.92670   0.22140   Biso      1.000     O          -0.679778           
         O3        1.0000    0.42190   0.09390   0.38840   Biso      1.000     O          -0.677634           
         O4        1.0000    0.57760   0.06990   0.47980   Biso      1.000     O          -0.74336  
         O5        1.0000    0.58650   0.97530   0.33610   Biso      1.000     O          -0.717704           
         O6        1.0000    0.08650   0.47530   0.33610   Biso      1.000     O          -0.717704           
         O7        1.0000    0.92190   0.59390   0.38840   Biso      1.000     O          -0.677634           
         O8        1.0000    0.07760   0.56990   0.47980   Biso      1.000     O          -0.74336  
         O9        1.0000    0.92610   0.67120   0.49920   Biso      1.000     O          -0.70476  
         O10       1.0000    0.08860   0.42670   0.22140   Biso      1.000     O          -0.679778           
         O11       1.0000    0.42610   0.82880   0.99920   Biso      1.000     O          -0.70476  
         O12       1.0000    0.42190   0.90610   0.88840   Biso      1.000     O          -0.677634           
         O13       1.0000    0.59490   0.18090   0.58010   Biso      1.000     O          -0.662628           
         O14       1.0000    0.08650   0.52470   0.83610   Biso      1.000     O          -0.717704           
         O15       1.0000    0.07760   0.43010   0.97980   Biso      1.000     O          -0.74336  
         O16       1.0000    0.09490   0.31910   0.08010   Biso      1.000     O          -0.662628           
         O17       1.0000    0.07390   0.32880   0.50080   Biso      1.000     O          -0.70476  
         O18       1.0000    0.59490   0.81910   0.08010   Biso      1.000     O          -0.662628           
         O19       1.0000    0.07810   0.40610   0.61160   Biso      1.000     O          -0.677634           
         O20       1.0000    0.41350   0.02470   0.66390   Biso      1.000     O          -0.717704           
         O21       1.0000    0.42240   0.93010   0.52020   Biso      1.000     O          -0.74336  
         O22       1.0000    0.41140   0.07330   0.77860   Biso      1.000     O          -0.679778           
         O23       1.0000    0.40510   0.81910   0.41990   Biso      1.000     O          -0.662628           
         O24       1.0000    0.90510   0.68090   0.91990   Biso      1.000     O          -0.662628           
         O25       1.0000    0.91140   0.57330   0.77860   Biso      1.000     O          -0.679778           
         O26       1.0000    0.92240   0.43010   0.52020   Biso      1.000     O          -0.74336  
         O27       1.0000    0.91350   0.52470   0.66390   Biso      1.000     O          -0.717704           
         O28       1.0000    0.57810   0.90610   0.61160   Biso      1.000     O          -0.677634           
         O29       1.0000    0.57390   0.82880   0.50080   Biso      1.000     O          -0.70476  
         O30       1.0000    0.57390   0.17120   0.00080   Biso      1.000     O          -0.70476  
         O31       1.0000    0.57810   0.09390   0.11160   Biso      1.000     O          -0.677634           
         O32       1.0000    0.42610   0.17120   0.49920   Biso      1.000     O          -0.70476  
         O33       1.0000    0.91350   0.47530   0.16390   Biso      1.000     O          -0.717704           
         O34       1.0000    0.91140   0.42670   0.27860   Biso      1.000     O          -0.679778           
         O35       1.0000    0.90510   0.31910   0.41990   Biso      1.000     O          -0.662628           
         O36       1.0000    0.40510   0.18090   0.91990   Biso      1.000     O          -0.662628           
         O37       1.0000    0.07390   0.67120   0.00080   Biso      1.000     O          -0.70476  
         O38       1.0000    0.58860   0.07330   0.72140   Biso      1.000     O          -0.679778           
         O39       1.0000    0.57760   0.93010   0.97980   Biso      1.000     O          -0.74336  
         O40       1.0000    0.58650   0.02470   0.83610   Biso      1.000     O          -0.717704           
         O41       1.0000    0.92190   0.40610   0.88840   Biso      1.000     O          -0.677634           
         O42       1.0000    0.07810   0.59390   0.11160   Biso      1.000     O          -0.677634           
         O43       1.0000    0.41350   0.97530   0.16390   Biso      1.000     O          -0.717704           
         O44       1.0000    0.42240   0.06990   0.02020   Biso      1.000     O          -0.74336  
         O45       1.0000    0.41140   0.92670   0.27860   Biso      1.000     O          -0.679778           
         O46       1.0000    0.09490   0.68090   0.58010   Biso      1.000     O          -0.662628           
         O47       1.0000    0.92240   0.56990   0.02020   Biso      1.000     O          -0.74336  
         O48       1.0000    0.92610   0.32880   0.99920   Biso      1.000     O          -0.70476 