
##########################################################################
#               Crystallographic Information Format file
#               Produced by PyCifRW module
#
#  This is a CIF file.  CIF has been adopted by the International
#  Union of Crystallography as the standard for data archiving and
#  transmission.
#
#  For information on this file format, follow the CIF links at
#  http://www.iucr.org
##########################################################################

data_image0

_cell_length_a                          18.1741
_cell_length_b                          11.3088
_cell_length_c                          18.6005
_cell_angle_alpha                       90
_cell_angle_beta                        108.166
_cell_angle_gamma                       90
_symmetry_space_group_name_H-M          'P 1'
_symmetry_int_tables_number             1
loop_
  _symmetry_equiv_pos_as_xyz
         'x, y, z' 
loop_
  _atom_site_label
  _atom_site_occupancy
  _atom_site_fract_x
  _atom_site_fract_y
  _atom_site_fract_z
  _atom_site_thermal_displace_type
  _atom_site_B_iso_or_equiv
  _atom_site_type_symbol
  _atom_site_charge
         C1        1.0000    0.61820   0.92960   0.79190   Biso      1.000     C          0.660008  
         C2        1.0000    0.60070   0.16850   0.57230   Biso      1.000     C          0.685465  
         C3        1.0000    0.80500   0.37100   0.67410   Biso      1.000     C          -0.015856           
         C4        1.0000    0.19750   0.24220   0.18860   Biso      1.000     C          0.307684  
         C5        1.0000    0.16760   0.25300   0.10970   Biso      1.000     C          -0.140629           
         C6        1.0000    0.76650   0.32270   0.71960   Biso      1.000     C          -0.234098           
         C7        1.0000    0.11480   0.34890   0.52730   Biso      1.000     C          0.666545  
         C8        1.0000    0.61480   0.15110   0.02730   Biso      1.000     C          0.666545  
         C9        1.0000    0.26650   0.17730   0.21960   Biso      1.000     C          -0.234105           
         C10       1.0000    0.30500   0.12900   0.17410   Biso      1.000     C          -0.015849           
         C11       1.0000    0.10070   0.33150   0.07230   Biso      1.000     C          0.685465  
         C12       1.0000    0.27390   0.13810   0.09540   Biso      1.000     C          -0.161969           
         C13       1.0000    0.66760   0.24700   0.60970   Biso      1.000     C          -0.140629           
         C14       1.0000    0.78990   0.34150   0.04350   Biso      1.000     C          -0.233143           
         C15       1.0000    0.72450   0.29860   0.05690   Biso      1.000     C          0.295605  
         C16       1.0000    0.68380   0.20460   0.01320   Biso      1.000     C          -0.099121           
         C17       1.0000    0.69750   0.25780   0.68860   Biso      1.000     C          0.307684  
         C18       1.0000    0.20560   0.19790   0.06520   Biso      1.000     C          -0.076464           
         C19       1.0000    0.38180   0.07040   0.20810   Biso      1.000     C          0.660007  
         C20       1.0000    0.20560   0.80210   0.56520   Biso      1.000     C          -0.076469           
         C21       1.0000    0.79440   0.80210   0.93480   Biso      1.000     C          -0.076469           
         C22       1.0000    0.31620   0.79540   0.98680   Biso      1.000     C          -0.09912  
         C23       1.0000    0.27550   0.70140   0.94310   Biso      1.000     C          0.295601  
         C24       1.0000    0.21010   0.65850   0.95650   Biso      1.000     C          -0.233138           
         C25       1.0000    0.77390   0.36190   0.59540   Biso      1.000     C          -0.161968           
         C26       1.0000    0.28990   0.15850   0.54350   Biso      1.000     C          -0.233143           
         C27       1.0000    0.22450   0.20140   0.55690   Biso      1.000     C          0.295605  
         C28       1.0000    0.18380   0.29540   0.51320   Biso      1.000     C          -0.099121           
         C29       1.0000    0.38180   0.92960   0.70810   Biso      1.000     C          0.660008  
         C30       1.0000    0.72450   0.70140   0.55690   Biso      1.000     C          0.295601  
         C31       1.0000    0.78990   0.65850   0.54350   Biso      1.000     C          -0.233138           
         C32       1.0000    0.27390   0.86190   0.59540   Biso      1.000     C          -0.161964           
         C33       1.0000    0.10070   0.66850   0.57230   Biso      1.000     C          0.685464  
         C34       1.0000    0.30500   0.87100   0.67410   Biso      1.000     C          -0.015857           
         C35       1.0000    0.26650   0.82270   0.71960   Biso      1.000     C          -0.234098           
         C36       1.0000    0.61480   0.84890   0.52730   Biso      1.000     C          0.666545  
         C37       1.0000    0.69750   0.74220   0.18860   Biso      1.000     C          0.307684  
         C38       1.0000    0.66760   0.75300   0.10970   Biso      1.000     C          -0.140629           
         C39       1.0000    0.16760   0.74700   0.60970   Biso      1.000     C          -0.140627           
         C40       1.0000    0.72610   0.86190   0.90460   Biso      1.000     C          -0.161964           
         C41       1.0000    0.11480   0.65110   0.02730   Biso      1.000     C          0.666545  
         C42       1.0000    0.76650   0.67730   0.21960   Biso      1.000     C          -0.234105           
         C43       1.0000    0.80500   0.62900   0.17410   Biso      1.000     C          -0.015849           
         C44       1.0000    0.60070   0.83150   0.07230   Biso      1.000     C          0.685465  
         C45       1.0000    0.77390   0.63810   0.09540   Biso      1.000     C          -0.161969           
         C46       1.0000    0.28990   0.84150   0.04350   Biso      1.000     C          -0.233143           
         C47       1.0000    0.22450   0.79860   0.05690   Biso      1.000     C          0.295605  
         C48       1.0000    0.18380   0.70460   0.01320   Biso      1.000     C          -0.099121           
         C49       1.0000    0.88180   0.42960   0.70810   Biso      1.000     C          0.660008  
         C50       1.0000    0.70560   0.69790   0.06520   Biso      1.000     C          -0.076464           
         C51       1.0000    0.88180   0.57040   0.20810   Biso      1.000     C          0.660007  
         C52       1.0000    0.70560   0.30210   0.56520   Biso      1.000     C          -0.076464           
         C53       1.0000    0.19750   0.75780   0.68860   Biso      1.000     C          0.307684  
         C54       1.0000    0.30250   0.74220   0.31140   Biso      1.000     C          0.307684  
         C55       1.0000    0.68380   0.79540   0.51320   Biso      1.000     C          -0.09912  
         C56       1.0000    0.77550   0.20140   0.94310   Biso      1.000     C          0.295601  
         C57       1.0000    0.80250   0.75780   0.81140   Biso      1.000     C          0.307683  
         C58       1.0000    0.79440   0.19790   0.43480   Biso      1.000     C          -0.076469           
         C59       1.0000    0.23350   0.32270   0.78040   Biso      1.000     C          -0.234105           
         C60       1.0000    0.11820   0.42960   0.79190   Biso      1.000     C          0.660007  
         C61       1.0000    0.29440   0.30210   0.93480   Biso      1.000     C          -0.076469           
         C62       1.0000    0.31620   0.20460   0.48680   Biso      1.000     C          -0.09912  
         C63       1.0000    0.81620   0.29540   0.98680   Biso      1.000     C          -0.09912  
         C64       1.0000    0.33240   0.75300   0.39030   Biso      1.000     C          -0.140629           
         C65       1.0000    0.80250   0.24220   0.31140   Biso      1.000     C          0.307684  
         C66       1.0000    0.27550   0.29860   0.44310   Biso      1.000     C          0.295601  
         C67       1.0000    0.83240   0.25300   0.39030   Biso      1.000     C          -0.140627           
         C68       1.0000    0.71010   0.15850   0.95650   Biso      1.000     C          -0.233139           
         C69       1.0000    0.21010   0.34150   0.45650   Biso      1.000     C          -0.233139           
         C70       1.0000    0.22610   0.36190   0.90460   Biso      1.000     C          -0.161965           
         C71       1.0000    0.38520   0.15110   0.47270   Biso      1.000     C          0.666544  
         C72       1.0000    0.19500   0.37100   0.82590   Biso      1.000     C          -0.015849           
         C73       1.0000    0.73350   0.17730   0.28040   Biso      1.000     C          -0.234105           
         C74       1.0000    0.72610   0.13810   0.40460   Biso      1.000     C          -0.161965           
         C75       1.0000    0.69500   0.12900   0.32590   Biso      1.000     C          -0.01585  
         C76       1.0000    0.39930   0.16850   0.92770   Biso      1.000     C          0.685464  
         C77       1.0000    0.61820   0.07040   0.29190   Biso      1.000     C          0.660007  
         C78       1.0000    0.83240   0.74700   0.89030   Biso      1.000     C          -0.140627           
         C79       1.0000    0.11820   0.57040   0.29190   Biso      1.000     C          0.660007  
         C80       1.0000    0.30250   0.25780   0.81140   Biso      1.000     C          0.307684  
         C81       1.0000    0.89930   0.66850   0.92770   Biso      1.000     C          0.685465  
         C82       1.0000    0.69500   0.87100   0.82590   Biso      1.000     C          -0.015857           
         C83       1.0000    0.88520   0.65110   0.47270   Biso      1.000     C          0.666545  
         C84       1.0000    0.33240   0.24700   0.89030   Biso      1.000     C          -0.140627           
         C85       1.0000    0.73350   0.82270   0.78040   Biso      1.000     C          -0.234098           
         C86       1.0000    0.23350   0.67730   0.28040   Biso      1.000     C          -0.234105           
         C87       1.0000    0.19500   0.62900   0.32590   Biso      1.000     C          -0.015849           
         C88       1.0000    0.39930   0.83150   0.42770   Biso      1.000     C          0.685465  
         C89       1.0000    0.22610   0.63810   0.40460   Biso      1.000     C          -0.161969           
         C90       1.0000    0.89930   0.33150   0.42770   Biso      1.000     C          0.685465  
         C91       1.0000    0.38520   0.84890   0.97270   Biso      1.000     C          0.666544  
         C92       1.0000    0.71010   0.84150   0.45650   Biso      1.000     C          -0.233143           
         C93       1.0000    0.77550   0.79860   0.44310   Biso      1.000     C          0.295605  
         C94       1.0000    0.81620   0.70460   0.48680   Biso      1.000     C          -0.099121           
         C95       1.0000    0.88520   0.34890   0.97270   Biso      1.000     C          0.666544  
         C96       1.0000    0.29440   0.69790   0.43480   Biso      1.000     C          -0.076464           
         H1        1.0000    0.21390   0.33280   0.72830   Biso      1.000     H          0.141189  
         H2        1.0000    0.12250   0.74690   0.73620   Biso      1.000     H          0.342656  
         H3        1.0000    0.81710   0.59690   0.57330   Biso      1.000     H          0.132758  
         H4        1.0000    0.30420   0.21510   0.71530   Biso      1.000     H          0.307819  
         H5        1.0000    0.29910   0.89590   0.56410   Biso      1.000     H          0.112548  
         H6        1.0000    0.28610   0.83280   0.77170   Biso      1.000     H          0.141189  
         H7        1.0000    0.19580   0.71510   0.78470   Biso      1.000     H          0.307819  
         H8        1.0000    0.37750   0.24690   0.76380   Biso      1.000     H          0.342656  
         H9        1.0000    0.70090   0.89590   0.93590   Biso      1.000     H          0.112548  
         H10       1.0000    0.70490   0.56820   0.60680   Biso      1.000     H          0.321035  
         H11       1.0000    0.18290   0.59690   0.92670   Biso      1.000     H          0.132758  
         H12       1.0000    0.81590   0.79850   0.98710   Biso      1.000     H          0.116494  
         H13       1.0000    0.20490   0.06820   0.60680   Biso      1.000     H          0.321035  
         H14       1.0000    0.23150   0.16450   0.65620   Biso      1.000     H          0.303397  
         H15       1.0000    0.71390   0.83280   0.72830   Biso      1.000     H          0.141189  
         H16       1.0000    0.69580   0.21510   0.78470   Biso      1.000     H          0.307819  
         H17       1.0000    0.87750   0.74690   0.76380   Biso      1.000     H          0.342656  
         H18       1.0000    0.62250   0.24690   0.73620   Biso      1.000     H          0.342656  
         H19       1.0000    0.73150   0.66450   0.65620   Biso      1.000     H          0.303397  
         H20       1.0000    0.80420   0.71510   0.71530   Biso      1.000     H          0.307819  
         H21       1.0000    0.26850   0.66450   0.84380   Biso      1.000     H          0.303397  
         H22       1.0000    0.29510   0.56820   0.89320   Biso      1.000     H          0.321035  
         H23       1.0000    0.79910   0.39590   0.56410   Biso      1.000     H          0.112548  
         H24       1.0000    0.31590   0.29850   0.98710   Biso      1.000     H          0.116494  
         H25       1.0000    0.31710   0.09690   0.57330   Biso      1.000     H          0.132758  
         H26       1.0000    0.68410   0.29850   0.51290   Biso      1.000     H          0.116493  
         H27       1.0000    0.68290   0.09690   0.92670   Biso      1.000     H          0.132758  
         H28       1.0000    0.20090   0.39590   0.93590   Biso      1.000     H          0.112548  
         H29       1.0000    0.78610   0.33280   0.77170   Biso      1.000     H          0.141189  
         H30       1.0000    0.20490   0.93180   0.10680   Biso      1.000     H          0.321035  
         H31       1.0000    0.79510   0.06820   0.89320   Biso      1.000     H          0.321035  
         H32       1.0000    0.70490   0.43180   0.10680   Biso      1.000     H          0.321035  
         H33       1.0000    0.87750   0.25310   0.26380   Biso      1.000     H          0.342656  
         H34       1.0000    0.80420   0.28490   0.21530   Biso      1.000     H          0.307819  
         H35       1.0000    0.26850   0.33550   0.34380   Biso      1.000     H          0.303397  
         H36       1.0000    0.29510   0.43180   0.39320   Biso      1.000     H          0.321035  
         H37       1.0000    0.20090   0.60410   0.43590   Biso      1.000     H          0.112548  
         H38       1.0000    0.73150   0.33550   0.15620   Biso      1.000     H          0.303397  
         H39       1.0000    0.19580   0.28490   0.28470   Biso      1.000     H          0.307819  
         H40       1.0000    0.12250   0.25310   0.23620   Biso      1.000     H          0.342656  
         H41       1.0000    0.28610   0.16720   0.27170   Biso      1.000     H          0.141189  
         H42       1.0000    0.29910   0.10410   0.06410   Biso      1.000     H          0.112548  
         H43       1.0000    0.81710   0.40310   0.07330   Biso      1.000     H          0.132758  
         H44       1.0000    0.18410   0.20150   0.01290   Biso      1.000     H          0.116493  
         H45       1.0000    0.18410   0.79850   0.51290   Biso      1.000     H          0.116494  
         H46       1.0000    0.31590   0.70150   0.48710   Biso      1.000     H          0.116493  
         H47       1.0000    0.79510   0.93180   0.39320   Biso      1.000     H          0.321035  
         H48       1.0000    0.76850   0.83550   0.34380   Biso      1.000     H          0.303397  
         H49       1.0000    0.30420   0.78490   0.21530   Biso      1.000     H          0.307819  
         H50       1.0000    0.37750   0.75310   0.26380   Biso      1.000     H          0.342656  
         H51       1.0000    0.21390   0.66720   0.22830   Biso      1.000     H          0.141189  
         H52       1.0000    0.68410   0.70150   0.01290   Biso      1.000     H          0.116493  
         H53       1.0000    0.71390   0.16720   0.22830   Biso      1.000     H          0.141189  
         H54       1.0000    0.68290   0.90310   0.42670   Biso      1.000     H          0.132758  
         H55       1.0000    0.18290   0.40310   0.42670   Biso      1.000     H          0.132758  
         H56       1.0000    0.76850   0.16450   0.84380   Biso      1.000     H          0.303397  
         H57       1.0000    0.81590   0.20150   0.48710   Biso      1.000     H          0.116494  
         H58       1.0000    0.31710   0.90310   0.07330   Biso      1.000     H          0.132758  
         H59       1.0000    0.79910   0.60410   0.06410   Biso      1.000     H          0.112548  
         H60       1.0000    0.70090   0.10410   0.43590   Biso      1.000     H          0.112548  
         H61       1.0000    0.23150   0.83550   0.15620   Biso      1.000     H          0.303397  
         H62       1.0000    0.78610   0.66720   0.27170   Biso      1.000     H          0.141189  
         H63       1.0000    0.62250   0.75310   0.23620   Biso      1.000     H          0.342656  
         H64       1.0000    0.69580   0.78490   0.28470   Biso      1.000     H          0.307819  
         N1        1.0000    0.33560   0.20900   0.76060   Biso      1.000     N          -0.68538  
         N2        1.0000    0.83560   0.70900   0.76060   Biso      1.000     N          -0.68538  
         N3        1.0000    0.79830   0.85580   0.38840   Biso      1.000     N          -0.733271           
         N4        1.0000    0.20170   0.14420   0.61160   Biso      1.000     N          -0.733271           
         N5        1.0000    0.20170   0.85580   0.11160   Biso      1.000     N          -0.733271           
         N6        1.0000    0.16440   0.70900   0.73940   Biso      1.000     N          -0.68538  
         N7        1.0000    0.16440   0.29100   0.23940   Biso      1.000     N          -0.68538  
         N8        1.0000    0.29830   0.64420   0.88840   Biso      1.000     N          -0.73327  
         N9        1.0000    0.66440   0.79100   0.23940   Biso      1.000     N          -0.68538  
         N10       1.0000    0.70170   0.35580   0.11160   Biso      1.000     N          -0.733271           
         N11       1.0000    0.70170   0.64420   0.61160   Biso      1.000     N          -0.73327  
         N12       1.0000    0.29830   0.35580   0.38840   Biso      1.000     N          -0.73327  
         N13       1.0000    0.33560   0.79100   0.26060   Biso      1.000     N          -0.68538  
         N14       1.0000    0.79830   0.14420   0.88840   Biso      1.000     N          -0.73327  
         N15       1.0000    0.83560   0.29100   0.26060   Biso      1.000     N          -0.68538  
         N16       1.0000    0.66440   0.20900   0.73940   Biso      1.000     N          -0.68538  
         O1        1.0000    0.58889   0.07120   0.22184   Biso      1.000     O          -0.664863           
         O2        1.0000    0.42190   0.06990   0.51480   Biso      1.000     O          -0.742406           
         O3        1.0000    0.58744   0.02080   0.33671   Biso      1.000     O          -0.713609           
         O4        1.0000    0.92632   0.32620   0.49885   Biso      1.000     O          -0.710472           
         O5        1.0000    0.42370   0.90050   0.38700   Biso      1.000     O          -0.653244           
         O6        1.0000    0.90420   0.68720   0.41691   Biso      1.000     O          -0.650923           
         O7        1.0000    0.90420   0.31280   0.91691   Biso      1.000     O          -0.650923           
         O8        1.0000    0.08744   0.52080   0.33671   Biso      1.000     O          -0.713609           
         O9        1.0000    0.08889   0.57120   0.22184   Biso      1.000     O          -0.664863           
         O10       1.0000    0.92190   0.43010   0.01480   Biso      1.000     O          -0.742405           
         O11       1.0000    0.08889   0.42880   0.72184   Biso      1.000     O          -0.664863           
         O12       1.0000    0.08744   0.47920   0.83671   Biso      1.000     O          -0.713609           
         O13       1.0000    0.42632   0.17380   0.99885   Biso      1.000     O          -0.710472           
         O14       1.0000    0.42370   0.09950   0.88700   Biso      1.000     O          -0.653244           
         O15       1.0000    0.92190   0.56990   0.51480   Biso      1.000     O          -0.742406           
         O16       1.0000    0.40420   0.18720   0.41691   Biso      1.000     O          -0.650923           
         O17       1.0000    0.92370   0.40050   0.38700   Biso      1.000     O          -0.653244           
         O18       1.0000    0.42632   0.82620   0.49885   Biso      1.000     O          -0.710472           
         O19       1.0000    0.07630   0.59950   0.61300   Biso      1.000     O          -0.653244           
         O20       1.0000    0.40420   0.81280   0.91691   Biso      1.000     O          -0.650923           
         O21       1.0000    0.57810   0.06990   0.98520   Biso      1.000     O          -0.742406           
         O22       1.0000    0.59580   0.81280   0.58309   Biso      1.000     O          -0.650923           
         O23       1.0000    0.07368   0.67380   0.50115   Biso      1.000     O          -0.710472           
         O24       1.0000    0.41256   0.97920   0.66329   Biso      1.000     O          -0.713609           
         O25       1.0000    0.41111   0.92880   0.77816   Biso      1.000     O          -0.664863           
         O26       1.0000    0.57810   0.93010   0.48520   Biso      1.000     O          -0.742406           
         O27       1.0000    0.07810   0.43010   0.48520   Biso      1.000     O          -0.742406           
         O28       1.0000    0.91111   0.42880   0.77816   Biso      1.000     O          -0.664863           
         O29       1.0000    0.91256   0.47920   0.66329   Biso      1.000     O          -0.713609           
         O30       1.0000    0.57368   0.17380   0.50115   Biso      1.000     O          -0.710472           
         O31       1.0000    0.09580   0.31280   0.58309   Biso      1.000     O          -0.650923           
         O32       1.0000    0.57630   0.09950   0.61300   Biso      1.000     O          -0.653244           
         O33       1.0000    0.57630   0.90050   0.11300   Biso      1.000     O          -0.653244           
         O34       1.0000    0.09580   0.68720   0.08309   Biso      1.000     O          -0.650923           
         O35       1.0000    0.57368   0.82620   0.00115   Biso      1.000     O          -0.710472           
         O36       1.0000    0.91111   0.57120   0.27816   Biso      1.000     O          -0.664863           
         O37       1.0000    0.91256   0.52080   0.16329   Biso      1.000     O          -0.713609           
         O38       1.0000    0.58744   0.97920   0.83671   Biso      1.000     O          -0.713609           
         O39       1.0000    0.07810   0.56990   0.98520   Biso      1.000     O          -0.742406           
         O40       1.0000    0.41111   0.07120   0.27816   Biso      1.000     O          -0.664863           
         O41       1.0000    0.07630   0.40050   0.11300   Biso      1.000     O          -0.653244           
         O42       1.0000    0.59580   0.18720   0.08309   Biso      1.000     O          -0.650923           
         O43       1.0000    0.41256   0.02080   0.16329   Biso      1.000     O          -0.713609           
         O44       1.0000    0.42190   0.93010   0.01480   Biso      1.000     O          -0.742405           
         O45       1.0000    0.58889   0.92880   0.72184   Biso      1.000     O          -0.664863           
         O46       1.0000    0.07368   0.32620   0.00115   Biso      1.000     O          -0.710472           
         O47       1.0000    0.92370   0.59950   0.88700   Biso      1.000     O          -0.653244           
         O48       1.0000    0.92632   0.67380   0.99885   Biso      1.000     O          -0.710472           
         Tb1       1.0000    0.49875   0.06493   0.10220   Biso      1.000     Tb          2.122244  
         Tb2       1.0000    0.99875   0.43507   0.60220   Biso      1.000     Tb          2.122244  
         Tb3       1.0000    0.00125   0.56493   0.39780   Biso      1.000     Tb          2.122244  
         Tb4       1.0000    0.00125   0.43507   0.89780   Biso      1.000     Tb          2.122244  
         Tb5       1.0000    0.50125   0.93507   0.89780   Biso      1.000     Tb          2.122244  
         Tb6       1.0000    0.99875   0.56493   0.10220   Biso      1.000     Tb          2.122244  
         Tb7       1.0000    0.49875   0.93507   0.60220   Biso      1.000     Tb          2.122244  
         Tb8       1.0000    0.50125   0.06493   0.39780   Biso      1.000     Tb          2.122244 