
##########################################################################
#               Crystallographic Information Format file
#               Produced by PyCifRW module
#
#  This is a CIF file.  CIF has been adopted by the International
#  Union of Crystallography as the standard for data archiving and
#  transmission.
#
#  For information on this file format, follow the CIF links at
#  http://www.iucr.org
##########################################################################

data_image0

_cell_length_a                          18.1887
_cell_length_b                          11.3416
_cell_length_c                          18.6835
_cell_angle_alpha                       90
_cell_angle_beta                        108.663
_cell_angle_gamma                       90
_symmetry_space_group_name_H-M          'P 1'
_symmetry_int_tables_number             1
loop_
  _symmetry_equiv_pos_as_xyz
         'x, y, z' 
loop_
  _atom_site_label
  _atom_site_occupancy
  _atom_site_fract_x
  _atom_site_fract_y
  _atom_site_fract_z
  _atom_site_thermal_displace_type
  _atom_site_B_iso_or_equiv
  _atom_site_type_symbol
  _atom_site_charge
         C1        1.0000    0.69800   0.75210   0.18920   Biso      1.000     C          0.322425  
         C2        1.0000    0.21160   0.33920   0.45520   Biso      1.000     C          -0.233303           
         C3        1.0000    0.83220   0.26270   0.39030   Biso      1.000     C          -0.148095           
         C4        1.0000    0.27770   0.29490   0.44350   Biso      1.000     C          0.296605  
         C5        1.0000    0.11470   0.35630   0.52160   Biso      1.000     C          0.651421  
         C6        1.0000    0.89770   0.34140   0.42900   Biso      1.000     C          0.662188  
         C7        1.0000    0.73140   0.18400   0.28040   Biso      1.000     C          -0.251824           
         C8        1.0000    0.11460   0.42500   0.79080   Biso      1.000     C          0.645435  
         C9        1.0000    0.23140   0.31600   0.78040   Biso      1.000     C          -0.251824           
         C10       1.0000    0.39770   0.15860   0.92900   Biso      1.000     C          0.662187  
         C11       1.0000    0.61470   0.14370   0.02160   Biso      1.000     C          0.651421  
         C12       1.0000    0.77770   0.20510   0.94350   Biso      1.000     C          0.296603  
         C13       1.0000    0.33220   0.23730   0.89030   Biso      1.000     C          -0.148095           
         C14       1.0000    0.61460   0.07500   0.29080   Biso      1.000     C          0.645435  
         C15       1.0000    0.71160   0.16080   0.95520   Biso      1.000     C          -0.2333   
         C16       1.0000    0.19370   0.36170   0.82450   Biso      1.000     C          -0.026073           
         C17       1.0000    0.22620   0.35890   0.90400   Biso      1.000     C          -0.143825           
         C18       1.0000    0.29370   0.29760   0.93600   Biso      1.000     C          -0.075388           
         C19       1.0000    0.68340   0.20170   0.01020   Biso      1.000     C          -0.131902           
         C20       1.0000    0.30200   0.24790   0.81080   Biso      1.000     C          0.322429  
         C21       1.0000    0.68340   0.79830   0.51020   Biso      1.000     C          -0.13191  
         C22       1.0000    0.31660   0.79830   0.98980   Biso      1.000     C          -0.13191  
         C23       1.0000    0.70630   0.70240   0.06400   Biso      1.000     C          -0.075397           
         C24       1.0000    0.77380   0.64110   0.09600   Biso      1.000     C          -0.143813           
         C25       1.0000    0.69370   0.13830   0.32450   Biso      1.000     C          -0.026073           
         C26       1.0000    0.80630   0.63830   0.17550   Biso      1.000     C          -0.026109           
         C27       1.0000    0.72620   0.14110   0.40400   Biso      1.000     C          -0.143825           
         C28       1.0000    0.18340   0.29830   0.51020   Biso      1.000     C          -0.131901           
         C29       1.0000    0.30200   0.75210   0.31080   Biso      1.000     C          0.322425  
         C30       1.0000    0.22620   0.64110   0.40400   Biso      1.000     C          -0.143821           
         C31       1.0000    0.19370   0.63830   0.32450   Biso      1.000     C          -0.026108           
         C32       1.0000    0.71160   0.83920   0.45520   Biso      1.000     C          -0.233295           
         C33       1.0000    0.33220   0.76270   0.39030   Biso      1.000     C          -0.148095           
         C34       1.0000    0.77770   0.79490   0.44350   Biso      1.000     C          0.296605  
         C35       1.0000    0.61470   0.85630   0.52160   Biso      1.000     C          0.651422  
         C36       1.0000    0.39770   0.84140   0.42900   Biso      1.000     C          0.662188  
         C37       1.0000    0.23140   0.68400   0.28040   Biso      1.000     C          -0.25179  
         C38       1.0000    0.11460   0.57500   0.29080   Biso      1.000     C          0.645438  
         C39       1.0000    0.61460   0.92500   0.79080   Biso      1.000     C          0.645435  
         C40       1.0000    0.73140   0.81600   0.78040   Biso      1.000     C          -0.251824           
         C41       1.0000    0.89770   0.65860   0.92900   Biso      1.000     C          0.662187  
         C42       1.0000    0.11470   0.64370   0.02160   Biso      1.000     C          0.651421  
         C43       1.0000    0.27770   0.70510   0.94350   Biso      1.000     C          0.296603  
         C44       1.0000    0.83220   0.73730   0.89030   Biso      1.000     C          -0.148095           
         C45       1.0000    0.21160   0.66080   0.95520   Biso      1.000     C          -0.2333   
         C46       1.0000    0.69370   0.86170   0.82450   Biso      1.000     C          -0.026073           
         C47       1.0000    0.72620   0.85890   0.90400   Biso      1.000     C          -0.143825           
         C48       1.0000    0.80200   0.25210   0.31080   Biso      1.000     C          0.322429  
         C49       1.0000    0.79370   0.79760   0.93600   Biso      1.000     C          -0.075388           
         C50       1.0000    0.18340   0.70170   0.01020   Biso      1.000     C          -0.131902           
         C51       1.0000    0.80200   0.74790   0.81080   Biso      1.000     C          0.322429  
         C52       1.0000    0.79370   0.20240   0.43600   Biso      1.000     C          -0.075388           
         C53       1.0000    0.28840   0.83920   0.04480   Biso      1.000     C          -0.233295           
         C54       1.0000    0.29370   0.70240   0.43600   Biso      1.000     C          -0.075388           
         C55       1.0000    0.10230   0.34140   0.07100   Biso      1.000     C          0.662187  
         C56       1.0000    0.69800   0.24790   0.68920   Biso      1.000     C          0.322428  
         C57       1.0000    0.31660   0.20170   0.48980   Biso      1.000     C          -0.13191  
         C58       1.0000    0.70630   0.29760   0.56400   Biso      1.000     C          -0.075397           
         C59       1.0000    0.19800   0.25210   0.18920   Biso      1.000     C          0.322425  
         C60       1.0000    0.81660   0.29830   0.98980   Biso      1.000     C          -0.131909           
         C61       1.0000    0.88530   0.35630   0.97840   Biso      1.000     C          0.651422  
         C62       1.0000    0.20630   0.20240   0.06400   Biso      1.000     C          -0.075397           
         C63       1.0000    0.66780   0.76270   0.10970   Biso      1.000     C          -0.148093           
         C64       1.0000    0.27380   0.14110   0.09600   Biso      1.000     C          -0.143813           
         C65       1.0000    0.66780   0.23730   0.60970   Biso      1.000     C          -0.148094           
         C66       1.0000    0.77380   0.35890   0.59600   Biso      1.000     C          -0.143817           
         C67       1.0000    0.78840   0.33920   0.04480   Biso      1.000     C          -0.233295           
         C68       1.0000    0.88540   0.42500   0.70920   Biso      1.000     C          0.645435  
         C69       1.0000    0.72230   0.29490   0.05650   Biso      1.000     C          0.296604  
         C70       1.0000    0.76860   0.31600   0.71960   Biso      1.000     C          -0.251824           
         C71       1.0000    0.60230   0.15860   0.57100   Biso      1.000     C          0.662188  
         C72       1.0000    0.80630   0.36170   0.67550   Biso      1.000     C          -0.026074           
         C73       1.0000    0.38530   0.14370   0.47840   Biso      1.000     C          0.651422  
         C74       1.0000    0.22230   0.20510   0.55650   Biso      1.000     C          0.296601  
         C75       1.0000    0.28840   0.16080   0.54480   Biso      1.000     C          -0.233292           
         C76       1.0000    0.30630   0.13830   0.17550   Biso      1.000     C          -0.026109           
         C77       1.0000    0.88540   0.57500   0.20920   Biso      1.000     C          0.645438  
         C78       1.0000    0.16780   0.26270   0.10970   Biso      1.000     C          -0.148093           
         C79       1.0000    0.81660   0.70170   0.48980   Biso      1.000     C          -0.13191  
         C80       1.0000    0.22230   0.79490   0.05650   Biso      1.000     C          0.296604  
         C81       1.0000    0.38540   0.92500   0.70920   Biso      1.000     C          0.645435  
         C82       1.0000    0.38530   0.85630   0.97840   Biso      1.000     C          0.651422  
         C83       1.0000    0.26860   0.81600   0.71960   Biso      1.000     C          -0.251824           
         C84       1.0000    0.10230   0.65860   0.57100   Biso      1.000     C          0.662187  
         C85       1.0000    0.88530   0.64370   0.47840   Biso      1.000     C          0.651422  
         C86       1.0000    0.38540   0.07500   0.20920   Biso      1.000     C          0.645438  
         C87       1.0000    0.19800   0.74790   0.68920   Biso      1.000     C          0.322428  
         C88       1.0000    0.16780   0.73730   0.60970   Biso      1.000     C          -0.148095           
         C89       1.0000    0.60230   0.84140   0.07100   Biso      1.000     C          0.662188  
         C90       1.0000    0.72230   0.70510   0.55650   Biso      1.000     C          0.296602  
         C91       1.0000    0.78840   0.66080   0.54480   Biso      1.000     C          -0.233292           
         C92       1.0000    0.30630   0.86170   0.67550   Biso      1.000     C          -0.026073           
         C93       1.0000    0.76860   0.68400   0.21960   Biso      1.000     C          -0.25179  
         C94       1.0000    0.27380   0.85890   0.59600   Biso      1.000     C          -0.143825           
         C95       1.0000    0.26860   0.18400   0.21960   Biso      1.000     C          -0.25179  
         C96       1.0000    0.20630   0.79760   0.56400   Biso      1.000     C          -0.075388           
         H1        1.0000    0.28820   0.17170   0.27140   Biso      1.000     H          0.129794  
         H2        1.0000    0.32640   0.75360   0.22220   Biso      1.000     H          0.324024  
         H3        1.0000    0.68500   0.89980   0.42410   Biso      1.000     H          0.129026  
         H4        1.0000    0.20210   0.60190   0.43420   Biso      1.000     H          0.116533  
         H5        1.0000    0.21180   0.67170   0.22860   Biso      1.000     H          0.129795  
         H6        1.0000    0.18580   0.36700   0.25310   Biso      1.000     H          0.325565  
         H7        1.0000    0.17360   0.25360   0.27780   Biso      1.000     H          0.324024  
         H8        1.0000    0.31420   0.86700   0.24690   Biso      1.000     H          0.325565  
         H9        1.0000    0.31500   0.89980   0.07590   Biso      1.000     H          0.129026  
         H10       1.0000    0.70210   0.10190   0.43420   Biso      1.000     H          0.116533  
         H11       1.0000    0.83290   0.78440   0.37080   Biso      1.000     H          0.31393   
         H12       1.0000    0.79790   0.60190   0.06580   Biso      1.000     H          0.116533  
         H13       1.0000    0.68500   0.70510   0.01170   Biso      1.000     H          0.114693  
         H14       1.0000    0.33290   0.28440   0.37080   Biso      1.000     H          0.31393   
         H15       1.0000    0.26460   0.35540   0.34600   Biso      1.000     H          0.28665   
         H16       1.0000    0.82640   0.25360   0.22220   Biso      1.000     H          0.324024  
         H17       1.0000    0.81420   0.36700   0.24690   Biso      1.000     H          0.325565  
         H18       1.0000    0.78820   0.67170   0.27140   Biso      1.000     H          0.129794  
         H19       1.0000    0.71180   0.17170   0.22860   Biso      1.000     H          0.129797  
         H20       1.0000    0.68580   0.86700   0.25310   Biso      1.000     H          0.325565  
         H21       1.0000    0.67360   0.75360   0.27780   Biso      1.000     H          0.324024  
         H22       1.0000    0.23540   0.85540   0.15400   Biso      1.000     H          0.28665   
         H23       1.0000    0.16710   0.78440   0.12920   Biso      1.000     H          0.31393   
         H24       1.0000    0.18500   0.39980   0.42410   Biso      1.000     H          0.129026  
         H25       1.0000    0.18500   0.20510   0.01170   Biso      1.000     H          0.114693  
         H26       1.0000    0.81500   0.20510   0.48830   Biso      1.000     H          0.114692  
         H27       1.0000    0.29790   0.10190   0.06580   Biso      1.000     H          0.116533  
         H28       1.0000    0.81500   0.39980   0.07590   Biso      1.000     H          0.129026  
         H29       1.0000    0.76460   0.85540   0.34600   Biso      1.000     H          0.28665   
         H30       1.0000    0.33290   0.71560   0.87080   Biso      1.000     H          0.31393   
         H31       1.0000    0.66710   0.28440   0.12920   Biso      1.000     H          0.31393   
         H32       1.0000    0.83290   0.21560   0.87080   Biso      1.000     H          0.31393   
         H33       1.0000    0.68580   0.13300   0.75310   Biso      1.000     H          0.325565  
         H34       1.0000    0.67360   0.24640   0.77780   Biso      1.000     H          0.324024  
         H35       1.0000    0.23540   0.14460   0.65400   Biso      1.000     H          0.28665   
         H36       1.0000    0.16710   0.21560   0.62920   Biso      1.000     H          0.31393   
         H37       1.0000    0.81500   0.60020   0.57590   Biso      1.000     H          0.129025  
         H38       1.0000    0.76460   0.14460   0.84600   Biso      1.000     H          0.28665   
         H39       1.0000    0.32640   0.24640   0.72220   Biso      1.000     H          0.324024  
         H40       1.0000    0.31420   0.13300   0.74690   Biso      1.000     H          0.325565  
         H41       1.0000    0.21180   0.32830   0.72860   Biso      1.000     H          0.129797  
         H42       1.0000    0.68500   0.10020   0.92410   Biso      1.000     H          0.129026  
         H43       1.0000    0.20210   0.39810   0.93420   Biso      1.000     H          0.116533  
         H44       1.0000    0.31500   0.29490   0.98830   Biso      1.000     H          0.114692  
         H45       1.0000    0.31500   0.70510   0.48830   Biso      1.000     H          0.114692  
         H46       1.0000    0.18500   0.79490   0.51170   Biso      1.000     H          0.114692  
         H47       1.0000    0.66710   0.71560   0.62920   Biso      1.000     H          0.31393   
         H48       1.0000    0.73540   0.64460   0.65400   Biso      1.000     H          0.28665   
         H49       1.0000    0.17360   0.74640   0.77780   Biso      1.000     H          0.324024  
         H50       1.0000    0.18580   0.63300   0.75310   Biso      1.000     H          0.325565  
         H51       1.0000    0.28820   0.82830   0.77140   Biso      1.000     H          0.129797  
         H52       1.0000    0.81500   0.79490   0.98830   Biso      1.000     H          0.114692  
         H53       1.0000    0.78820   0.32830   0.77140   Biso      1.000     H          0.129797  
         H54       1.0000    0.29790   0.89810   0.56580   Biso      1.000     H          0.116533  
         H55       1.0000    0.79790   0.39810   0.56580   Biso      1.000     H          0.116533  
         H56       1.0000    0.73540   0.35540   0.15400   Biso      1.000     H          0.28665   
         H57       1.0000    0.68500   0.29490   0.51170   Biso      1.000     H          0.114693  
         H58       1.0000    0.70210   0.89810   0.93420   Biso      1.000     H          0.116533  
         H59       1.0000    0.18500   0.60020   0.92410   Biso      1.000     H          0.129026  
         H60       1.0000    0.31500   0.10020   0.57590   Biso      1.000     H          0.129025  
         H61       1.0000    0.26460   0.64460   0.84600   Biso      1.000     H          0.28665   
         H62       1.0000    0.71180   0.82830   0.72860   Biso      1.000     H          0.129797  
         H63       1.0000    0.82640   0.74640   0.72220   Biso      1.000     H          0.324024  
         H64       1.0000    0.81420   0.63300   0.74690   Biso      1.000     H          0.325565  
         N1        1.0000    0.66550   0.79800   0.23840   Biso      1.000     N          -0.708915           
         N2        1.0000    0.16550   0.29800   0.23840   Biso      1.000     N          -0.708915           
         N3        1.0000    0.69700   0.66500   0.61300   Biso      1.000     N          -0.683124           
         N4        1.0000    0.30300   0.33500   0.38700   Biso      1.000     N          -0.683124           
         N5        1.0000    0.30300   0.66500   0.88700   Biso      1.000     N          -0.683124           
         N6        1.0000    0.83450   0.29800   0.26160   Biso      1.000     N          -0.708914           
         N7        1.0000    0.33450   0.20200   0.76160   Biso      1.000     N          -0.708914           
         N8        1.0000    0.33450   0.79800   0.26160   Biso      1.000     N          -0.708915           
         N9        1.0000    0.83450   0.70200   0.76160   Biso      1.000     N          -0.708914           
         N10       1.0000    0.80300   0.16500   0.88700   Biso      1.000     N          -0.683124           
         N11       1.0000    0.80300   0.83500   0.38700   Biso      1.000     N          -0.683124           
         N12       1.0000    0.19700   0.16500   0.61300   Biso      1.000     N          -0.683124           
         N13       1.0000    0.16550   0.70200   0.73840   Biso      1.000     N          -0.708914           
         N14       1.0000    0.69700   0.33500   0.11300   Biso      1.000     N          -0.683124           
         N15       1.0000    0.66550   0.20200   0.73840   Biso      1.000     N          -0.708914           
         N16       1.0000    0.19700   0.83500   0.11300   Biso      1.000     N          -0.683124           
         O1        1.0000    0.42200   0.06740   0.52670   Biso      1.000     O          -0.655259           
         O2        1.0000    0.91140   0.42570   0.77850   Biso      1.000     O          -0.619402           
         O3        1.0000    0.57910   0.08510   0.61230   Biso      1.000     O          -0.615871           
         O4        1.0000    0.91460   0.47020   0.66530   Biso      1.000     O          -0.62288  
         O5        1.0000    0.90580   0.67160   0.42150   Biso      1.000     O          -0.61951  
         O6        1.0000    0.07480   0.66590   0.49960   Biso      1.000     O          -0.646107           
         O7        1.0000    0.07480   0.33410   0.99960   Biso      1.000     O          -0.646107           
         O8        1.0000    0.07910   0.58510   0.61230   Biso      1.000     O          -0.615871           
         O9        1.0000    0.92200   0.56740   0.52670   Biso      1.000     O          -0.655259           
         O10       1.0000    0.41140   0.07430   0.27850   Biso      1.000     O          -0.619402           
         O11       1.0000    0.92200   0.43260   0.02670   Biso      1.000     O          -0.655259           
         O12       1.0000    0.07910   0.41490   0.11230   Biso      1.000     O          -0.615871           
         O13       1.0000    0.41460   0.02980   0.16530   Biso      1.000     O          -0.62288  
         O14       1.0000    0.90580   0.32840   0.92150   Biso      1.000     O          -0.61951  
         O15       1.0000    0.41140   0.92570   0.77850   Biso      1.000     O          -0.619402           
         O16       1.0000    0.57480   0.16590   0.49960   Biso      1.000     O          -0.646107           
         O17       1.0000    0.40580   0.17160   0.42150   Biso      1.000     O          -0.61951  
         O18       1.0000    0.41460   0.97020   0.66530   Biso      1.000     O          -0.62288  
         O19       1.0000    0.59420   0.82840   0.57850   Biso      1.000     O          -0.61951  
         O20       1.0000    0.57480   0.83410   0.99960   Biso      1.000     O          -0.646107           
         O21       1.0000    0.08860   0.42570   0.72150   Biso      1.000     O          -0.619402           
         O22       1.0000    0.42520   0.83410   0.50040   Biso      1.000     O          -0.646107           
         O23       1.0000    0.08540   0.52980   0.33470   Biso      1.000     O          -0.62288  
         O24       1.0000    0.42090   0.91490   0.38770   Biso      1.000     O          -0.615871           
         O25       1.0000    0.57800   0.93260   0.47330   Biso      1.000     O          -0.655259           
         O26       1.0000    0.08860   0.57430   0.22150   Biso      1.000     O          -0.619402           
         O27       1.0000    0.58860   0.07430   0.22150   Biso      1.000     O          -0.619402           
         O28       1.0000    0.07800   0.43260   0.47330   Biso      1.000     O          -0.655259           
         O29       1.0000    0.92090   0.41490   0.38770   Biso      1.000     O          -0.615871           
         O30       1.0000    0.58540   0.02980   0.33470   Biso      1.000     O          -0.62288  
         O31       1.0000    0.92520   0.33410   0.50040   Biso      1.000     O          -0.646107           
         O32       1.0000    0.09420   0.32840   0.57850   Biso      1.000     O          -0.61951  
         O33       1.0000    0.09420   0.67160   0.07850   Biso      1.000     O          -0.61951  
         O34       1.0000    0.92520   0.66590   0.00040   Biso      1.000     O          -0.646107           
         O35       1.0000    0.58540   0.97020   0.83470   Biso      1.000     O          -0.62288  
         O36       1.0000    0.07800   0.56740   0.97330   Biso      1.000     O          -0.655259           
         O37       1.0000    0.92090   0.58510   0.88770   Biso      1.000     O          -0.615871           
         O38       1.0000    0.57910   0.91490   0.11230   Biso      1.000     O          -0.615871           
         O39       1.0000    0.58860   0.92570   0.72150   Biso      1.000     O          -0.619402           
         O40       1.0000    0.57800   0.06740   0.97330   Biso      1.000     O          -0.655259           
         O41       1.0000    0.59420   0.17160   0.07850   Biso      1.000     O          -0.61951  
         O42       1.0000    0.42520   0.16590   0.00040   Biso      1.000     O          -0.646107           
         O43       1.0000    0.42090   0.08510   0.88770   Biso      1.000     O          -0.615871           
         O44       1.0000    0.91140   0.57430   0.27850   Biso      1.000     O          -0.619402           
         O45       1.0000    0.42200   0.93260   0.02670   Biso      1.000     O          -0.655259           
         O46       1.0000    0.08540   0.47020   0.83470   Biso      1.000     O          -0.62288  
         O47       1.0000    0.40580   0.82840   0.92150   Biso      1.000     O          -0.61951  
         O48       1.0000    0.91460   0.52980   0.16530   Biso      1.000     O          -0.62288  
         Y1        1.0000    0.49876   0.06707   0.10389   Biso      1.000     Y          1.863183  
         Y2        1.0000    0.99876   0.43293   0.60389   Biso      1.000     Y          1.863183  
         Y3        1.0000    0.00124   0.56707   0.39611   Biso      1.000     Y          1.863183  
         Y4        1.0000    0.00124   0.43293   0.89611   Biso      1.000     Y          1.863183  
         Y5        1.0000    0.50124   0.93293   0.89611   Biso      1.000     Y          1.863183  
         Y6        1.0000    0.99876   0.56707   0.10389   Biso      1.000     Y          1.863183  
         Y7        1.0000    0.49876   0.93293   0.60389   Biso      1.000     Y          1.863183  
         Y8        1.0000    0.50124   0.06707   0.39611   Biso      1.000     Y          1.863183 