
##########################################################################
#               Crystallographic Information Format file
#               Produced by PyCifRW module
#
#  This is a CIF file.  CIF has been adopted by the International
#  Union of Crystallography as the standard for data archiving and
#  transmission.
#
#  For information on this file format, follow the CIF links at
#  http://www.iucr.org
##########################################################################

data_image0

_cell_length_a                          15.2299
_cell_length_b                          15.2299
_cell_length_c                          18.5141
_cell_angle_alpha                       76.082
_cell_angle_beta                        76.082
_cell_angle_gamma                       68.2043
_symmetry_space_group_name_H-M          'P 1'
_symmetry_int_tables_number             1
loop_
  _symmetry_equiv_pos_as_xyz
         'x, y, z' 
loop_
  _atom_site_label
  _atom_site_occupancy
  _atom_site_fract_x
  _atom_site_fract_y
  _atom_site_fract_z
  _atom_site_thermal_displace_type
  _atom_site_B_iso_or_equiv
  _atom_site_type_symbol
  _atom_site_charge
         C1        1.0000    0.67740   0.02880   0.54710   Biso      1.000     C          -0.096661           
         C2        1.0000    0.01710   0.68190   0.17540   Biso      1.000     C          -0.086898           
         C3        1.0000    0.01750   0.73090   0.09970   Biso      1.000     C          -0.035194           
         C4        1.0000    0.00770   0.83370   0.08040   Biso      1.000     C          0.679034  
         C5        1.0000    0.31230   0.98050   0.74660   Biso      1.000     C          -0.091007           
         C6        1.0000    0.40240   0.98300   0.72930   Biso      1.000     C          -0.14816500000000002          
         C7        1.0000    0.43610   0.03210   0.65930   Biso      1.000     C          0.080712  
         C8        1.0000    0.37020   0.07980   0.61020   Biso      1.000     C          -0.149922           
         C9        1.0000    0.27910   0.07410   0.62800   Biso      1.000     C          -0.098468           
         C10       1.0000    0.24780   0.02420   0.69540   Biso      1.000     C          -0.050305           
         C11       1.0000    0.14970   0.01590   0.71420   Biso      1.000     C          0.6896680000000001  
         C12       1.0000    0.01260   0.28820   0.55770   Biso      1.000     C          -0.088637           
         C13       1.0000    0.01890   0.37570   0.55750   Biso      1.000     C          -0.148403           
         C14       1.0000    0.99430   0.45310   0.50100   Biso      1.000     C          0.079123  
         C15       1.0000    0.95470   0.44150   0.44620   Biso      1.000     C          -0.155865           
         C16       1.0000    0.94770   0.35390   0.44560   Biso      1.000     C          -0.100732           
         C17       1.0000    0.97650   0.27550   0.50210   Biso      1.000     C          -0.028571           
         C18       1.0000    0.96830   0.18090   0.50090   Biso      1.000     C          0.682938  
         C19       1.0000    0.62980   0.92020   0.38980   Biso      1.000     C          -0.149922           
         C20       1.0000    0.58390   0.03390   0.56650   Biso      1.000     C          -0.146624           
         C21       1.0000    0.53520   0.02980   0.64060   Biso      1.000     C          0.081773  
         C22       1.0000    0.58940   0.02220   0.69340   Biso      1.000     C          -0.14895  
         C23       1.0000    0.68190   0.01710   0.67540   Biso      1.000     C          -0.086872           
         C24       1.0000    0.73090   0.01750   0.59970   Biso      1.000     C          -0.035181           
         C25       1.0000    0.83370   0.00770   0.58040   Biso      1.000     C          0.679033  
         C26       1.0000    0.01950   0.68770   0.75340   Biso      1.000     C          -0.091007           
         C27       1.0000    0.01700   0.59760   0.77070   Biso      1.000     C          -0.14816500000000002          
         C28       1.0000    0.96790   0.56390   0.84070   Biso      1.000     C          0.080712  
         C29       1.0000    0.92020   0.62980   0.88980   Biso      1.000     C          -0.149921           
         C30       1.0000    0.92590   0.72090   0.87200   Biso      1.000     C          -0.098468           
         C31       1.0000    0.02220   0.58940   0.19340   Biso      1.000     C          -0.148924           
         C32       1.0000    0.97580   0.75220   0.80460   Biso      1.000     C          -0.050305           
         C33       1.0000    0.02980   0.53520   0.14060   Biso      1.000     C          0.081772  
         C34       1.0000    0.02880   0.67740   0.04710   Biso      1.000     C          -0.09664600000000001          
         C35       1.0000    0.85030   0.98410   0.28580   Biso      1.000     C          0.6896680000000001  
         C36       1.0000    0.98740   0.71180   0.44230   Biso      1.000     C          -0.088637           
         C37       1.0000    0.98110   0.62430   0.44250   Biso      1.000     C          -0.148403           
         C38       1.0000    0.00570   0.54690   0.49900   Biso      1.000     C          0.079123  
         C39       1.0000    0.04530   0.55850   0.55380   Biso      1.000     C          -0.155865           
         C40       1.0000    0.05230   0.64610   0.55440   Biso      1.000     C          -0.100732           
         C41       1.0000    0.02350   0.72450   0.49790   Biso      1.000     C          -0.028571           
         C42       1.0000    0.03170   0.81910   0.49910   Biso      1.000     C          0.682938  
         C43       1.0000    0.32260   0.97120   0.45290   Biso      1.000     C          -0.096661           
         C44       1.0000    0.41610   0.96610   0.43350   Biso      1.000     C          -0.146624           
         C45       1.0000    0.46480   0.97020   0.35940   Biso      1.000     C          0.081773  
         C46       1.0000    0.41060   0.97780   0.30660   Biso      1.000     C          -0.14895  
         C47       1.0000    0.31810   0.98290   0.32460   Biso      1.000     C          -0.086872           
         C48       1.0000    0.26910   0.98250   0.40030   Biso      1.000     C          -0.035181           
         C49       1.0000    0.16630   0.99230   0.41960   Biso      1.000     C          0.679033  
         C50       1.0000    0.98050   0.31230   0.24660   Biso      1.000     C          -0.091007           
         C51       1.0000    0.98300   0.40240   0.22930   Biso      1.000     C          -0.14816500000000002          
         C52       1.0000    0.03210   0.43610   0.15930   Biso      1.000     C          0.080711  
         C53       1.0000    0.07980   0.37020   0.11020   Biso      1.000     C          -0.149921           
         C54       1.0000    0.07410   0.27910   0.12800   Biso      1.000     C          -0.098468           
         C55       1.0000    0.02420   0.24780   0.19540   Biso      1.000     C          -0.050305           
         C56       1.0000    0.01590   0.14970   0.21420   Biso      1.000     C          0.6896680000000001  
         C57       1.0000    0.28820   0.01260   0.05770   Biso      1.000     C          -0.088637           
         C58       1.0000    0.37570   0.01890   0.05750   Biso      1.000     C          -0.148403           
         C59       1.0000    0.45310   0.99430   0.00100   Biso      1.000     C          0.079123  
         C60       1.0000    0.44150   0.95470   0.94620   Biso      1.000     C          -0.155865           
         C61       1.0000    0.35390   0.94770   0.94560   Biso      1.000     C          -0.100732           
         C62       1.0000    0.27550   0.97650   0.00210   Biso      1.000     C          -0.028571           
         C63       1.0000    0.18090   0.96830   0.00090   Biso      1.000     C          0.682938  
         C64       1.0000    0.03390   0.58390   0.06650   Biso      1.000     C          -0.146626           
         C65       1.0000    0.98410   0.85030   0.78580   Biso      1.000     C          0.6896680000000001  
         C66       1.0000    0.71180   0.98740   0.94230   Biso      1.000     C          -0.088637           
         C67       1.0000    0.62430   0.98110   0.94250   Biso      1.000     C          -0.148403           
         C68       1.0000    0.68770   0.01950   0.25340   Biso      1.000     C          -0.091007           
         C69       1.0000    0.59760   0.01700   0.27070   Biso      1.000     C          -0.14816500000000002          
         C70       1.0000    0.56390   0.96790   0.34070   Biso      1.000     C          0.080712  
         C71       1.0000    0.75220   0.97580   0.30460   Biso      1.000     C          -0.050309           
         C72       1.0000    0.99230   0.16630   0.91960   Biso      1.000     C          0.679034  
         C73       1.0000    0.98250   0.26910   0.90030   Biso      1.000     C          -0.035195           
         C74       1.0000    0.98290   0.31810   0.82460   Biso      1.000     C          -0.086898           
         C75       1.0000    0.97780   0.41060   0.80660   Biso      1.000     C          -0.148924           
         C76       1.0000    0.72090   0.92590   0.37200   Biso      1.000     C          -0.098464           
         C77       1.0000    0.96610   0.41610   0.93350   Biso      1.000     C          -0.14663900000000002          
         C78       1.0000    0.97120   0.32260   0.95290   Biso      1.000     C          -0.096634           
         C79       1.0000    0.81910   0.03170   0.99910   Biso      1.000     C          0.682938  
         C80       1.0000    0.54690   0.00570   0.99900   Biso      1.000     C          0.079123  
         C81       1.0000    0.55850   0.04530   0.05380   Biso      1.000     C          -0.155865           
         C82       1.0000    0.64610   0.05230   0.05440   Biso      1.000     C          -0.100732           
         C83       1.0000    0.97020   0.46480   0.85940   Biso      1.000     C          0.081773  
         C84       1.0000    0.72450   0.02350   0.99790   Biso      1.000     C          -0.028571           
         H1        1.0000    0.56040   0.02080   0.74370   Biso      1.000     H          0.10751400000000001           
         H2        1.0000    0.55070   0.04050   0.52830   Biso      1.000     H          0.102748  
         H3        1.0000    0.70550   0.03310   0.49650   Biso      1.000     H          0.103921  
         H4        1.0000    0.93230   0.49330   0.40900   Biso      1.000     H          0.10872899999999999           
         H5        1.0000    0.71450   0.01310   0.71320   Biso      1.000     H          0.120306  
         H6        1.0000    0.04110   0.38310   0.59760   Biso      1.000     H          0.10523099999999999           
         H7        1.0000    0.03300   0.23720   0.59610   Biso      1.000     H          0.123574  
         H8        1.0000    0.92330   0.34690   0.40660   Biso      1.000     H          0.110355  
         H9        1.0000    0.05100   0.70760   0.70630   Biso      1.000     H          0.111805  
         H10       1.0000    0.89510   0.76250   0.90670   Biso      1.000     H          0.115772  
         H11       1.0000    0.88400   0.61200   0.93530   Biso      1.000     H          0.11719700000000001           
         H12       1.0000    0.76280   0.96700   0.90390   Biso      1.000     H          0.123574  
         H13       1.0000    0.61690   0.95890   0.90240   Biso      1.000     H          0.10523099999999999           
         H14       1.0000    0.50670   0.06770   0.09100   Biso      1.000     H          0.10872899999999999           
         H15       1.0000    0.65310   0.07670   0.09340   Biso      1.000     H          0.110355  
         H16       1.0000    0.96690   0.29450   0.00350   Biso      1.000     H          0.10392   
         H17       1.0000    0.95950   0.44930   0.97170   Biso      1.000     H          0.10274900000000001           
         H18       1.0000    0.97920   0.43960   0.75630   Biso      1.000     H          0.10751300000000001           
         H19       1.0000    0.98690   0.28550   0.78680   Biso      1.000     H          0.120308  
         H20       1.0000    0.04840   0.55640   0.73570   Biso      1.000     H          0.110698  
         H21       1.0000    0.23750   0.10490   0.59330   Biso      1.000     H          0.115772  
         H22       1.0000    0.29240   0.94900   0.79370   Biso      1.000     H          0.111805  
         H23       1.0000    0.44360   0.95160   0.76430   Biso      1.000     H          0.110698  
         H24       1.0000    0.70760   0.05100   0.20630   Biso      1.000     H          0.111805  
         H25       1.0000    0.55640   0.04840   0.23570   Biso      1.000     H          0.110698  
         H26       1.0000    0.61200   0.88400   0.43530   Biso      1.000     H          0.11719700000000001           
         H27       1.0000    0.76250   0.89510   0.40670   Biso      1.000     H          0.115771  
         H28       1.0000    0.96700   0.76280   0.40390   Biso      1.000     H          0.123574  
         H29       1.0000    0.95890   0.61690   0.40240   Biso      1.000     H          0.10523099999999999           
         H30       1.0000    0.06770   0.50670   0.59100   Biso      1.000     H          0.10872899999999999           
         H31       1.0000    0.07670   0.65310   0.59340   Biso      1.000     H          0.110355  
         H32       1.0000    0.29450   0.96690   0.50350   Biso      1.000     H          0.103921  
         H33       1.0000    0.44930   0.95950   0.47170   Biso      1.000     H          0.102748  
         H34       1.0000    0.43960   0.97920   0.25630   Biso      1.000     H          0.10751400000000001           
         H35       1.0000    0.28550   0.98690   0.28680   Biso      1.000     H          0.120306  
         H36       1.0000    0.94900   0.29240   0.29370   Biso      1.000     H          0.111805  
         H37       1.0000    0.95160   0.44360   0.26430   Biso      1.000     H          0.110698  
         H38       1.0000    0.11600   0.38800   0.06470   Biso      1.000     H          0.11719700000000001           
         H39       1.0000    0.10490   0.23750   0.09330   Biso      1.000     H          0.115771  
         H40       1.0000    0.23720   0.03300   0.09610   Biso      1.000     H          0.123574  
         H41       1.0000    0.38310   0.04110   0.09760   Biso      1.000     H          0.10523099999999999           
         H42       1.0000    0.49330   0.93230   0.90900   Biso      1.000     H          0.10872899999999999           
         H43       1.0000    0.03310   0.70550   0.99650   Biso      1.000     H          0.10392   
         H44       1.0000    0.04050   0.55070   0.02830   Biso      1.000     H          0.102748  
         H45       1.0000    0.02080   0.56040   0.24370   Biso      1.000     H          0.10751199999999998           
         H46       1.0000    0.01310   0.71450   0.21320   Biso      1.000     H          0.120308  
         H47       1.0000    0.38800   0.11600   0.56470   Biso      1.000     H          0.11719700000000001           
         H48       1.0000    0.34690   0.92330   0.90660   Biso      1.000     H          0.110355  
         Ho1       1.0000    0.96184   0.04366   0.10434   Biso      1.000     Ho          2.12256   
         Ho2       1.0000    0.04366   0.96184   0.60434   Biso      1.000     Ho          2.12256   
         Ho3       1.0000    0.03816   0.95634   0.89566   Biso      1.000     Ho          2.12256   
         Ho4       1.0000    0.95634   0.03816   0.39566   Biso      1.000     Ho          2.12256   
         O1        1.0000    0.87590   0.01950   0.22090   Biso      1.000     O          -0.6918380000000001           
         O2        1.0000    0.04400   0.83260   0.56030   Biso      1.000     O          -0.723748           
         O3        1.0000    0.89656   0.96076   0.33900   Biso      1.000     O          -0.706585           
         O4        1.0000    0.12900   0.98680   0.48730   Biso      1.000     O          -0.757046           
         O5        1.0000    0.12230   0.97550   0.05950   Biso      1.000     O          -0.660199           
         O6        1.0000    0.01050   0.11990   0.86660   Biso      1.000     O          -0.639876           
         O7        1.0000    0.98050   0.12410   0.27910   Biso      1.000     O          -0.6918380000000001           
         O8        1.0000    0.16740   0.95600   0.93970   Biso      1.000     O          -0.723748           
         O9        1.0000    0.03924   0.10344   0.16100   Biso      1.000     O          -0.706585           
         O10       1.0000    0.01320   0.87100   0.01270   Biso      1.000     O          -0.757046           
         O11       1.0000    0.97550   0.12230   0.55950   Biso      1.000     O          -0.660199           
         O12       1.0000    0.11990   0.01050   0.36660   Biso      1.000     O          -0.639877           
         O13       1.0000    0.12410   0.98050   0.77910   Biso      1.000     O          -0.6918380000000001           
         O14       1.0000    0.95600   0.16740   0.43970   Biso      1.000     O          -0.723748           
         O15       1.0000    0.10344   0.03924   0.66100   Biso      1.000     O          -0.706585           
         O16       1.0000    0.87100   0.01320   0.51270   Biso      1.000     O          -0.757046           
         O17       1.0000    0.87770   0.02450   0.94050   Biso      1.000     O          -0.660199           
         O18       1.0000    0.98950   0.88010   0.13340   Biso      1.000     O          -0.639876           
         O19       1.0000    0.01950   0.87590   0.72090   Biso      1.000     O          -0.6918380000000001           
         O20       1.0000    0.83260   0.04400   0.06030   Biso      1.000     O          -0.723748           
         O21       1.0000    0.96076   0.89656   0.83900   Biso      1.000     O          -0.706585           
         O22       1.0000    0.98680   0.12900   0.98730   Biso      1.000     O          -0.757046           
         O23       1.0000    0.88010   0.98950   0.63340   Biso      1.000     O          -0.639877           
         O24       1.0000    0.02450   0.87770   0.44050   Biso      1.000     O          -0.660199 