
##########################################################################
#               Crystallographic Information Format file
#               Produced by PyCifRW module
#
#  This is a CIF file.  CIF has been adopted by the International
#  Union of Crystallography as the standard for data archiving and
#  transmission.
#
#  For information on this file format, follow the CIF links at
#  http://www.iucr.org
##########################################################################

data_image0

_cell_length_a                          15.2994
_cell_length_b                          15.2994
_cell_length_c                          18.4904
_cell_angle_alpha                       75.7184
_cell_angle_beta                        75.7184
_cell_angle_gamma                       68.1324
_symmetry_space_group_name_H-M          'P 1'
_symmetry_int_tables_number             1
loop_
  _symmetry_equiv_pos_as_xyz
         'x, y, z' 
loop_
  _atom_site_label
  _atom_site_occupancy
  _atom_site_fract_x
  _atom_site_fract_y
  _atom_site_fract_z
  _atom_site_thermal_displace_type
  _atom_site_B_iso_or_equiv
  _atom_site_type_symbol
  _atom_site_charge
         C1        1.0000    0.31960   0.97320   0.45210   Biso      1.000     C          -0.101263           
         C2        1.0000    0.81787   0.03147   0.99970   Biso      1.000     C          0.677162  
         C3        1.0000    0.97320   0.31960   0.95210   Biso      1.000     C          -0.101263           
         C4        1.0000    0.96920   0.41280   0.93430   Biso      1.000     C          -0.151295           
         C5        1.0000    0.97110   0.46250   0.85990   Biso      1.000     C          0.079893  
         C6        1.0000    0.97840   0.41180   0.80530   Biso      1.000     C          -0.150256           
         C7        1.0000    0.98210   0.31810   0.82270   Biso      1.000     C          -0.08883  
         C8        1.0000    0.98280   0.26960   0.89690   Biso      1.000     C          -0.028531           
         C9        1.0000    0.99170   0.16670   0.91550   Biso      1.000     C          0.670593  
         C10       1.0000    0.68660   0.02220   0.25360   Biso      1.000     C          -0.088928           
         C11       1.0000    0.59550   0.01670   0.27110   Biso      1.000     C          -0.151958           
         C12       1.0000    0.56370   0.96710   0.34120   Biso      1.000     C          0.081758  
         C13       1.0000    0.62650   0.92050   0.39120   Biso      1.000     C          -0.151014           
         C14       1.0000    0.71930   0.92510   0.37360   Biso      1.000     C          -0.098433           
         C15       1.0000    0.75030   0.97610   0.30460   Biso      1.000     C          -0.048657           
         C16       1.0000    0.72370   0.02350   0.99900   Biso      1.000     C          -0.030881           
         C17       1.0000    0.84714   0.98534   0.28720   Biso      1.000     C          0.673026  
         C18       1.0000    0.97810   0.62450   0.44260   Biso      1.000     C          -0.158118           
         C19       1.0000    0.00580   0.54620   0.49970   Biso      1.000     C          0.077979  
         C20       1.0000    0.04700   0.55720   0.55410   Biso      1.000     C          -0.15764  
         C21       1.0000    0.05380   0.64440   0.55440   Biso      1.000     C          -0.097278           
         C22       1.0000    0.02350   0.72370   0.49900   Biso      1.000     C          -0.030882           
         C23       1.0000    0.03147   0.81787   0.49970   Biso      1.000     C          0.677162  
         C24       1.0000    0.41280   0.96920   0.43430   Biso      1.000     C          -0.151295           
         C25       1.0000    0.46250   0.97110   0.35990   Biso      1.000     C          0.079893  
         C26       1.0000    0.41180   0.97840   0.30530   Biso      1.000     C          -0.150256           
         C27       1.0000    0.31810   0.98210   0.32270   Biso      1.000     C          -0.08883  
         C28       1.0000    0.26960   0.98280   0.39690   Biso      1.000     C          -0.028531           
         C29       1.0000    0.16670   0.99170   0.41550   Biso      1.000     C          0.670593  
         C30       1.0000    0.98330   0.40450   0.22890   Biso      1.000     C          -0.151959           
         C31       1.0000    0.03290   0.43630   0.15880   Biso      1.000     C          0.081758  
         C32       1.0000    0.98810   0.71050   0.44260   Biso      1.000     C          -0.086275           
         C33       1.0000    0.07950   0.37350   0.10880   Biso      1.000     C          -0.151014           
         C34       1.0000    0.64440   0.05380   0.05440   Biso      1.000     C          -0.09728  
         C35       1.0000    0.54620   0.00580   0.99970   Biso      1.000     C          0.077979  
         C36       1.0000    0.31340   0.97780   0.74640   Biso      1.000     C          -0.088928           
         C37       1.0000    0.40450   0.98330   0.72890   Biso      1.000     C          -0.151958           
         C38       1.0000    0.43630   0.03290   0.65880   Biso      1.000     C          0.081758  
         C39       1.0000    0.37350   0.07950   0.60880   Biso      1.000     C          -0.151014           
         C40       1.0000    0.28070   0.07490   0.62640   Biso      1.000     C          -0.098433           
         C41       1.0000    0.24970   0.02390   0.69540   Biso      1.000     C          -0.048657           
         C42       1.0000    0.15286   0.01466   0.71280   Biso      1.000     C          0.673026  
         C43       1.0000    0.01190   0.28950   0.55740   Biso      1.000     C          -0.086282           
         C44       1.0000    0.02190   0.37550   0.55740   Biso      1.000     C          -0.158115           
         C45       1.0000    0.99420   0.45380   0.50030   Biso      1.000     C          0.077979  
         C46       1.0000    0.95300   0.44280   0.44590   Biso      1.000     C          -0.157639           
         C47       1.0000    0.94620   0.35560   0.44560   Biso      1.000     C          -0.097278           
         C48       1.0000    0.97650   0.27630   0.50100   Biso      1.000     C          -0.030877           
         C49       1.0000    0.96853   0.18213   0.50030   Biso      1.000     C          0.677162  
         C50       1.0000    0.55720   0.04700   0.05410   Biso      1.000     C          -0.157637           
         C51       1.0000    0.68040   0.02680   0.54790   Biso      1.000     C          -0.101263           
         C52       1.0000    0.53750   0.02890   0.64010   Biso      1.000     C          0.079893  
         C53       1.0000    0.58820   0.02160   0.69470   Biso      1.000     C          -0.150256           
         C54       1.0000    0.68190   0.01790   0.67730   Biso      1.000     C          -0.08883  
         C55       1.0000    0.73040   0.01720   0.60310   Biso      1.000     C          -0.028531           
         C56       1.0000    0.83330   0.00830   0.58450   Biso      1.000     C          0.670593  
         C57       1.0000    0.02220   0.68660   0.75360   Biso      1.000     C          -0.088928           
         C58       1.0000    0.01670   0.59550   0.77110   Biso      1.000     C          -0.151958           
         C59       1.0000    0.96710   0.56370   0.84120   Biso      1.000     C          0.081757  
         C60       1.0000    0.92050   0.62650   0.89120   Biso      1.000     C          -0.151014           
         C61       1.0000    0.92510   0.71930   0.87360   Biso      1.000     C          -0.098433           
         C62       1.0000    0.97610   0.75030   0.80460   Biso      1.000     C          -0.048657           
         C63       1.0000    0.98534   0.84714   0.78720   Biso      1.000     C          0.673026  
         C64       1.0000    0.71050   0.98810   0.94260   Biso      1.000     C          -0.086277           
         C65       1.0000    0.62450   0.97810   0.94260   Biso      1.000     C          -0.158116           
         C66       1.0000    0.58720   0.03080   0.56570   Biso      1.000     C          -0.151296           
         C67       1.0000    0.07490   0.28070   0.12640   Biso      1.000     C          -0.098433           
         C68       1.0000    0.97780   0.31340   0.24640   Biso      1.000     C          -0.088927           
         C69       1.0000    0.01466   0.15286   0.21280   Biso      1.000     C          0.673026  
         C70       1.0000    0.02390   0.24970   0.19540   Biso      1.000     C          -0.048658           
         C71       1.0000    0.00830   0.83330   0.08450   Biso      1.000     C          0.670593  
         C72       1.0000    0.01720   0.73040   0.10310   Biso      1.000     C          -0.028537           
         C73       1.0000    0.01790   0.68190   0.17730   Biso      1.000     C          -0.088835           
         C74       1.0000    0.02890   0.53750   0.14010   Biso      1.000     C          0.079893  
         C75       1.0000    0.03080   0.58720   0.06570   Biso      1.000     C          -0.151306           
         C76       1.0000    0.02680   0.68040   0.04790   Biso      1.000     C          -0.101248           
         C77       1.0000    0.02160   0.58820   0.19470   Biso      1.000     C          -0.15025  
         C78       1.0000    0.27630   0.97650   0.00100   Biso      1.000     C          -0.030882           
         C79       1.0000    0.35560   0.94620   0.94560   Biso      1.000     C          -0.09728  
         C80       1.0000    0.44280   0.95300   0.94590   Biso      1.000     C          -0.157638           
         C81       1.0000    0.45380   0.99420   0.00030   Biso      1.000     C          0.07798   
         C82       1.0000    0.37550   0.02190   0.05740   Biso      1.000     C          -0.158119           
         C83       1.0000    0.18213   0.96853   0.00030   Biso      1.000     C          0.677162  
         C84       1.0000    0.28950   0.01190   0.05740   Biso      1.000     C          -0.086275           
         H1        1.0000    0.44410   0.96510   0.47270   Biso      1.000     H          0.107074  
         H2        1.0000    0.28950   0.96930   0.50240   Biso      1.000     H          0.104095  
         H3        1.0000    0.07950   0.65050   0.59290   Biso      1.000     H          0.110504  
         H4        1.0000    0.07020   0.50520   0.59090   Biso      1.000     H          0.110594  
         H5        1.0000    0.76070   0.89370   0.40830   Biso      1.000     H          0.118803  
         H6        1.0000    0.97030   0.76110   0.40320   Biso      1.000     H          0.121229  
         H7        1.0000    0.55470   0.04630   0.23590   Biso      1.000     H          0.11467   
         H8        1.0000    0.44220   0.98080   0.25500   Biso      1.000     H          0.10994   
         H9        1.0000    0.60710   0.88570   0.43720   Biso      1.000     H          0.118824  
         H10       1.0000    0.95260   0.61860   0.40400   Biso      1.000     H          0.112946  
         H11       1.0000    0.28690   0.98430   0.28470   Biso      1.000     H          0.124179  
         H12       1.0000    0.34950   0.92050   0.90710   Biso      1.000     H          0.110504  
         H13       1.0000    0.95370   0.44530   0.26410   Biso      1.000     H          0.11467   
         H14       1.0000    0.11430   0.39290   0.06280   Biso      1.000     H          0.118824  
         H15       1.0000    0.10630   0.23930   0.09170   Biso      1.000     H          0.118803  
         H16       1.0000    0.23890   0.02970   0.09680   Biso      1.000     H          0.121229  
         H17       1.0000    0.38140   0.04740   0.09600   Biso      1.000     H          0.112946  
         H18       1.0000    0.49480   0.92980   0.90910   Biso      1.000     H          0.110593  
         H19       1.0000    0.03070   0.71050   0.99760   Biso      1.000     H          0.104094  
         H20       1.0000    0.03490   0.55590   0.02730   Biso      1.000     H          0.107075  
         H21       1.0000    0.01920   0.55780   0.24500   Biso      1.000     H          0.10994   
         H22       1.0000    0.01570   0.71310   0.21530   Biso      1.000     H          0.124179  
         H23       1.0000    0.94290   0.29430   0.29250   Biso      1.000     H          0.11407   
         H24       1.0000    0.70570   0.05710   0.20750   Biso      1.000     H          0.114069  
         H25       1.0000    0.96510   0.44410   0.97270   Biso      1.000     H          0.107074  
         H26       1.0000    0.98080   0.44220   0.75500   Biso      1.000     H          0.10994   
         H27       1.0000    0.29430   0.94290   0.79250   Biso      1.000     H          0.11407   
         H28       1.0000    0.44530   0.95370   0.76410   Biso      1.000     H          0.11467   
         H29       1.0000    0.39290   0.11430   0.56280   Biso      1.000     H          0.118824  
         H30       1.0000    0.23930   0.10630   0.59170   Biso      1.000     H          0.118803  
         H31       1.0000    0.98430   0.28690   0.78470   Biso      1.000     H          0.124179  
         H32       1.0000    0.04740   0.38140   0.59600   Biso      1.000     H          0.112945  
         H33       1.0000    0.92980   0.49480   0.40910   Biso      1.000     H          0.110593  
         H34       1.0000    0.92050   0.34950   0.40710   Biso      1.000     H          0.110504  
         H35       1.0000    0.71050   0.03070   0.49760   Biso      1.000     H          0.104095  
         H36       1.0000    0.55590   0.03490   0.52730   Biso      1.000     H          0.107074  
         H37       1.0000    0.02970   0.23890   0.59680   Biso      1.000     H          0.12123   
         H38       1.0000    0.71310   0.01570   0.71530   Biso      1.000     H          0.124179  
         H39       1.0000    0.05710   0.70570   0.70750   Biso      1.000     H          0.11407   
         H40       1.0000    0.04630   0.55470   0.73590   Biso      1.000     H          0.11467   
         H41       1.0000    0.88570   0.60710   0.93720   Biso      1.000     H          0.118824  
         H42       1.0000    0.89370   0.76070   0.90830   Biso      1.000     H          0.118803  
         H43       1.0000    0.76110   0.97030   0.90320   Biso      1.000     H          0.121229  
         H44       1.0000    0.61860   0.95260   0.90400   Biso      1.000     H          0.112945  
         H45       1.0000    0.50520   0.07020   0.09090   Biso      1.000     H          0.110593  
         H46       1.0000    0.65050   0.07950   0.09290   Biso      1.000     H          0.110504  
         H47       1.0000    0.96930   0.28950   0.00240   Biso      1.000     H          0.104095  
         H48       1.0000    0.55780   0.01920   0.74500   Biso      1.000     H          0.10994   
         O1        1.0000    0.87279   0.02279   0.22090   Biso      1.000     O          -0.698356           
         O2        1.0000    0.00939   0.12299   0.86240   Biso      1.000     O          -0.622726           
         O3        1.0000    0.98886   0.12466   0.98300   Biso      1.000     O          -0.770604           
         O4        1.0000    0.87738   0.02478   0.94020   Biso      1.000     O          -0.663394           
         O5        1.0000    0.83057   0.04357   0.06070   Biso      1.000     O          -0.709396           
         O6        1.0000    0.89554   0.95934   0.34040   Biso      1.000     O          -0.696502           
         O7        1.0000    0.02279   0.87279   0.72090   Biso      1.000     O          -0.698356           
         O8        1.0000    0.95643   0.16943   0.43930   Biso      1.000     O          -0.709397           
         O9        1.0000    0.97522   0.12262   0.55980   Biso      1.000     O          -0.663394           
         O10       1.0000    0.87534   0.01114   0.51700   Biso      1.000     O          -0.770604           
         O11       1.0000    0.87701   0.99061   0.63760   Biso      1.000     O          -0.622726           
         O12       1.0000    0.95934   0.89554   0.84040   Biso      1.000     O          -0.696502           
         O13       1.0000    0.04357   0.83057   0.56070   Biso      1.000     O          -0.709396           
         O14       1.0000    0.12721   0.97721   0.77910   Biso      1.000     O          -0.698356           
         O15       1.0000    0.12466   0.98886   0.48300   Biso      1.000     O          -0.770604           
         O16       1.0000    0.12299   0.00939   0.36240   Biso      1.000     O          -0.622726           
         O17       1.0000    0.97721   0.12721   0.27910   Biso      1.000     O          -0.698356           
         O18       1.0000    0.04066   0.10446   0.15960   Biso      1.000     O          -0.696502           
         O19       1.0000    0.16943   0.95643   0.93930   Biso      1.000     O          -0.709396           
         O20       1.0000    0.12262   0.97522   0.05980   Biso      1.000     O          -0.663394           
         O21       1.0000    0.01114   0.87534   0.01700   Biso      1.000     O          -0.770604           
         O22       1.0000    0.99061   0.87701   0.13760   Biso      1.000     O          -0.622725           
         O23       1.0000    0.10446   0.04066   0.65960   Biso      1.000     O          -0.696502           
         O24       1.0000    0.02478   0.87738   0.44020   Biso      1.000     O          -0.663394           
         Tb1       1.0000    0.04354   0.96142   0.60404   Biso      1.000     Tb          2.122999  
         Tb2       1.0000    0.03858   0.95646   0.89596   Biso      1.000     Tb          2.123     
         Tb3       1.0000    0.95646   0.03858   0.39596   Biso      1.000     Tb          2.123     
         Tb4       1.0000    0.96142   0.04354   0.10404   Biso      1.000     Tb          2.122999 