
##########################################################################
#               Crystallographic Information Format file
#               Produced by PyCifRW module
#
#  This is a CIF file.  CIF has been adopted by the International
#  Union of Crystallography as the standard for data archiving and
#  transmission.
#
#  For information on this file format, follow the CIF links at
#  http://www.iucr.org
##########################################################################

data_image0

_cell_length_a                          15.204
_cell_length_b                          15.204
_cell_length_c                          18.5354
_cell_angle_alpha                       76.2724
_cell_angle_beta                        76.2724
_cell_angle_gamma                       68.3932
_symmetry_space_group_name_H-M          'P 1'
_symmetry_int_tables_number             1
loop_
  _symmetry_equiv_pos_as_xyz
         'x, y, z' 
loop_
  _atom_site_label
  _atom_site_occupancy
  _atom_site_fract_x
  _atom_site_fract_y
  _atom_site_fract_z
  _atom_site_thermal_displace_type
  _atom_site_B_iso_or_equiv
  _atom_site_type_symbol
  _atom_site_charge
         C1        1.0000    0.28920   0.00980   0.55810   Biso      1.000     C          -0.09022  
         C2        1.0000    0.27030   0.98170   0.90030   Biso      1.000     C          -0.028701           
         C3        1.0000    0.16700   0.99200   0.92080   Biso      1.000     C          0.680656  
         C4        1.0000    0.99020   0.71080   0.94190   Biso      1.000     C          -0.09022  
         C5        1.0000    0.97910   0.62350   0.94250   Biso      1.000     C          -0.156239           
         C6        1.0000    0.00600   0.54620   0.99930   Biso      1.000     C          0.07853   
         C7        1.0000    0.04610   0.55850   0.05410   Biso      1.000     C          -0.156922           
         C8        1.0000    0.05310   0.64710   0.05440   Biso      1.000     C          -0.10127  
         C9        1.0000    0.02500   0.72400   0.99880   Biso      1.000     C          -0.02537  
         C10       1.0000    0.03100   0.82000   0.99970   Biso      1.000     C          0.680401  
         C11       1.0000    0.02280   0.58840   0.69250   Biso      1.000     C          -0.145995           
         C12       1.0000    0.01720   0.68380   0.67370   Biso      1.000     C          -0.0891   
         C13       1.0000    0.01660   0.14860   0.71490   Biso      1.000     C          0.680171  
         C14       1.0000    0.02590   0.24630   0.69680   Biso      1.000     C          -0.050734           
         C15       1.0000    0.07680   0.27640   0.62770   Biso      1.000     C          -0.097159           
         C16       1.0000    0.08090   0.36850   0.60980   Biso      1.000     C          -0.147293           
         C17       1.0000    0.03450   0.43370   0.65900   Biso      1.000     C          0.079914  
         C18       1.0000    0.98520   0.40320   0.73010   Biso      1.000     C          -0.156554           
         C19       1.0000    0.32220   0.97180   0.95480   Biso      1.000     C          -0.105632           
         C20       1.0000    0.98280   0.30940   0.74770   Biso      1.000     C          -0.091153           
         C21       1.0000    0.41940   0.96440   0.93480   Biso      1.000     C          -0.152835           
         C22       1.0000    0.41160   0.97720   0.80750   Biso      1.000     C          -0.145996           
         C23       1.0000    0.01830   0.72970   0.59970   Biso      1.000     C          -0.028699           
         C24       1.0000    0.00800   0.83300   0.57920   Biso      1.000     C          0.680656  
         C25       1.0000    0.03090   0.53530   0.63970   Biso      1.000     C          0.078949  
         C26       1.0000    0.37650   0.02090   0.55750   Biso      1.000     C          -0.156239           
         C27       1.0000    0.45380   0.99400   0.50070   Biso      1.000     C          0.07853   
         C28       1.0000    0.44150   0.95390   0.44590   Biso      1.000     C          -0.156922           
         C29       1.0000    0.35290   0.94690   0.44560   Biso      1.000     C          -0.10127  
         C30       1.0000    0.27600   0.97500   0.50120   Biso      1.000     C          -0.02537  
         C31       1.0000    0.18000   0.96900   0.50030   Biso      1.000     C          0.680401  
         C32       1.0000    0.69060   0.01720   0.75230   Biso      1.000     C          -0.091155           
         C33       1.0000    0.59680   0.01480   0.76990   Biso      1.000     C          -0.156553           
         C34       1.0000    0.56630   0.96550   0.84100   Biso      1.000     C          0.079911  
         C35       1.0000    0.63150   0.91910   0.89020   Biso      1.000     C          -0.147293           
         C36       1.0000    0.72360   0.92320   0.87230   Biso      1.000     C          -0.097156           
         C37       1.0000    0.75370   0.97410   0.80320   Biso      1.000     C          -0.050731           
         C38       1.0000    0.85140   0.98340   0.78510   Biso      1.000     C          0.680171  
         C39       1.0000    0.31620   0.98280   0.82630   Biso      1.000     C          -0.089097           
         C40       1.0000    0.46470   0.96910   0.86030   Biso      1.000     C          0.078951  
         C41       1.0000    0.96900   0.18000   0.00030   Biso      1.000     C          0.680401  
         C42       1.0000    0.97500   0.27600   0.00120   Biso      1.000     C          -0.025384           
         C43       1.0000    0.94690   0.35290   0.94560   Biso      1.000     C          -0.101264           
         C44       1.0000    0.54620   0.00600   0.49930   Biso      1.000     C          0.07853   
         C45       1.0000    0.62350   0.97910   0.44250   Biso      1.000     C          -0.15624  
         C46       1.0000    0.71080   0.99020   0.44190   Biso      1.000     C          -0.09022  
         C47       1.0000    0.99200   0.16700   0.42080   Biso      1.000     C          0.680656  
         C48       1.0000    0.98170   0.27030   0.40030   Biso      1.000     C          -0.028701           
         C49       1.0000    0.97180   0.32220   0.45480   Biso      1.000     C          -0.105632           
         C50       1.0000    0.96440   0.41940   0.43480   Biso      1.000     C          -0.152835           
         C51       1.0000    0.96910   0.46470   0.36030   Biso      1.000     C          0.078945  
         C52       1.0000    0.97720   0.41160   0.30750   Biso      1.000     C          -0.14599  
         C53       1.0000    0.98280   0.31620   0.32630   Biso      1.000     C          -0.089098           
         C54       1.0000    0.98340   0.85140   0.28510   Biso      1.000     C          0.680171  
         C55       1.0000    0.97410   0.75370   0.30320   Biso      1.000     C          -0.050733           
         C56       1.0000    0.92320   0.72360   0.37230   Biso      1.000     C          -0.097159           
         C57       1.0000    0.91910   0.63150   0.39020   Biso      1.000     C          -0.147294           
         C58       1.0000    0.96550   0.56630   0.34100   Biso      1.000     C          0.079915  
         C59       1.0000    0.01480   0.59680   0.26990   Biso      1.000     C          -0.156554           
         C60       1.0000    0.01720   0.69060   0.25230   Biso      1.000     C          -0.091153           
         C61       1.0000    0.55850   0.04610   0.55410   Biso      1.000     C          -0.156922           
         C62       1.0000    0.64710   0.05310   0.55440   Biso      1.000     C          -0.101271           
         C63       1.0000    0.72400   0.02500   0.49880   Biso      1.000     C          -0.02537  
         C64       1.0000    0.82000   0.03100   0.49970   Biso      1.000     C          0.680401  
         C65       1.0000    0.95390   0.44150   0.94590   Biso      1.000     C          -0.156924           
         C66       1.0000    0.99400   0.45380   0.00070   Biso      1.000     C          0.078531  
         C67       1.0000    0.02090   0.37650   0.05750   Biso      1.000     C          -0.156241           
         C68       1.0000    0.00980   0.28920   0.05810   Biso      1.000     C          -0.090209           
         C69       1.0000    0.83300   0.00800   0.07920   Biso      1.000     C          0.680656  
         C70       1.0000    0.72970   0.01830   0.09970   Biso      1.000     C          -0.028701           
         C71       1.0000    0.67780   0.02820   0.04520   Biso      1.000     C          -0.105632           
         C72       1.0000    0.58060   0.03560   0.06520   Biso      1.000     C          -0.152835           
         C73       1.0000    0.02820   0.67780   0.54520   Biso      1.000     C          -0.105632           
         C74       1.0000    0.53530   0.03090   0.13970   Biso      1.000     C          0.078945  
         C75       1.0000    0.68380   0.01720   0.17370   Biso      1.000     C          -0.089099           
         C76       1.0000    0.14860   0.01660   0.21490   Biso      1.000     C          0.680171  
         C77       1.0000    0.24630   0.02590   0.19680   Biso      1.000     C          -0.050733           
         C78       1.0000    0.27640   0.07680   0.12770   Biso      1.000     C          -0.097159           
         C79       1.0000    0.36850   0.08090   0.10980   Biso      1.000     C          -0.147294           
         C80       1.0000    0.43370   0.03450   0.15900   Biso      1.000     C          0.079915  
         C81       1.0000    0.40320   0.98520   0.23010   Biso      1.000     C          -0.156554           
         C82       1.0000    0.30940   0.98280   0.24770   Biso      1.000     C          -0.091153           
         C83       1.0000    0.58840   0.02280   0.19250   Biso      1.000     C          -0.14599  
         C84       1.0000    0.03560   0.58060   0.56520   Biso      1.000     C          -0.152835           
         Er1       1.0000    0.04343   0.96215   0.10455   Biso      1.000     Er          2.124729  
         Er2       1.0000    0.03785   0.95657   0.39545   Biso      1.000     Er          2.124729  
         Er3       1.0000    0.95657   0.03785   0.89545   Biso      1.000     Er          2.124729  
         Er4       1.0000    0.96215   0.04343   0.60455   Biso      1.000     Er          2.124729  
         H1        1.0000    0.04860   0.71100   0.20530   Biso      1.000     H          0.112892  
         H2        1.0000    0.01260   0.71740   0.71110   Biso      1.000     H          0.12262   
         H3        1.0000    0.02120   0.55940   0.74280   Biso      1.000     H          0.108432  
         H4        1.0000    0.04390   0.54590   0.52760   Biso      1.000     H          0.107882  
         H5        1.0000    0.02990   0.70710   0.49500   Biso      1.000     H          0.106604  
         H6        1.0000    0.23920   0.02640   0.59780   Biso      1.000     H          0.123178  
         H7        1.0000    0.38290   0.04670   0.59590   Biso      1.000     H          0.11117   
         H8        1.0000    0.49300   0.93140   0.40870   Biso      1.000     H          0.110166  
         H9        1.0000    0.34570   0.92250   0.40670   Biso      1.000     H          0.111823  
         H10       1.0000    0.71100   0.04860   0.70530   Biso      1.000     H          0.112892  
         H11       1.0000    0.76590   0.89210   0.90640   Biso      1.000     H          0.119873  
         H12       1.0000    0.10790   0.23410   0.59360   Biso      1.000     H          0.119873  
         H13       1.0000    0.28260   0.98740   0.78890   Biso      1.000     H          0.12262   
         H14       1.0000    0.44060   0.97880   0.75720   Biso      1.000     H          0.108432  
         H15       1.0000    0.45410   0.95610   0.97240   Biso      1.000     H          0.107882  
         H16       1.0000    0.29290   0.97010   0.00500   Biso      1.000     H          0.106604  
         H17       1.0000    0.97360   0.76080   0.90220   Biso      1.000     H          0.123178  
         H18       1.0000    0.95330   0.61710   0.90410   Biso      1.000     H          0.11117   
         H19       1.0000    0.06860   0.50700   0.09130   Biso      1.000     H          0.110166  
         H20       1.0000    0.07750   0.65430   0.09330   Biso      1.000     H          0.111824  
         H21       1.0000    0.61300   0.88440   0.93620   Biso      1.000     H          0.118597  
         H22       1.0000    0.11560   0.38700   0.56380   Biso      1.000     H          0.118596  
         H23       1.0000    0.55500   0.04520   0.73530   Biso      1.000     H          0.117319  
         H24       1.0000    0.95140   0.28900   0.79470   Biso      1.000     H          0.112892  
         H25       1.0000    0.95480   0.44500   0.76470   Biso      1.000     H          0.117319  
         H26       1.0000    0.88440   0.61300   0.43620   Biso      1.000     H          0.118597  
         H27       1.0000    0.89210   0.76590   0.40640   Biso      1.000     H          0.119873  
         H28       1.0000    0.98740   0.28260   0.28890   Biso      1.000     H          0.12262   
         H29       1.0000    0.97880   0.44060   0.25720   Biso      1.000     H          0.108432  
         H30       1.0000    0.95610   0.45410   0.47240   Biso      1.000     H          0.107882  
         H31       1.0000    0.97010   0.29290   0.50500   Biso      1.000     H          0.106604  
         H32       1.0000    0.76080   0.97360   0.40220   Biso      1.000     H          0.123178  
         H33       1.0000    0.61710   0.95330   0.40410   Biso      1.000     H          0.11117   
         H34       1.0000    0.50700   0.06860   0.59130   Biso      1.000     H          0.110166  
         H35       1.0000    0.65430   0.07750   0.59330   Biso      1.000     H          0.111824  
         H36       1.0000    0.28900   0.95140   0.29470   Biso      1.000     H          0.112892  
         H37       1.0000    0.04520   0.55500   0.23530   Biso      1.000     H          0.117319  
         H38       1.0000    0.92250   0.34570   0.90670   Biso      1.000     H          0.111823  
         H39       1.0000    0.38700   0.11560   0.06380   Biso      1.000     H          0.118597  
         H40       1.0000    0.23410   0.10790   0.09360   Biso      1.000     H          0.119873  
         H41       1.0000    0.71740   0.01260   0.21110   Biso      1.000     H          0.12262   
         H42       1.0000    0.55940   0.02120   0.24280   Biso      1.000     H          0.108431  
         H43       1.0000    0.54590   0.04390   0.02760   Biso      1.000     H          0.107882  
         H44       1.0000    0.70710   0.02990   0.99500   Biso      1.000     H          0.106604  
         H45       1.0000    0.02640   0.23920   0.09780   Biso      1.000     H          0.123178  
         H46       1.0000    0.04670   0.38290   0.09590   Biso      1.000     H          0.11117   
         H47       1.0000    0.93140   0.49300   0.90870   Biso      1.000     H          0.110166  
         H48       1.0000    0.44500   0.95480   0.26470   Biso      1.000     H          0.117319  
         O1        1.0000    0.87090   0.01290   0.01080   Biso      1.000     O          -0.771245           
         O2        1.0000    0.87860   0.99020   0.13140   Biso      1.000     O          -0.625616           
         O3        1.0000    0.09968   0.04208   0.16210   Biso      1.000     O          -0.702152           
         O4        1.0000    0.12150   0.98270   0.28100   Biso      1.000     O          -0.699595           
         O5        1.0000    0.95792   0.90032   0.33790   Biso      1.000     O          -0.702152           
         O6        1.0000    0.12090   0.97590   0.55960   Biso      1.000     O          -0.667762           
         O7        1.0000    0.98710   0.12910   0.48920   Biso      1.000     O          -0.771245           
         O8        1.0000    0.00980   0.12140   0.36860   Biso      1.000     O          -0.625617           
         O9        1.0000    0.02410   0.87910   0.94040   Biso      1.000     O          -0.667762           
         O10       1.0000    0.83360   0.04280   0.56040   Biso      1.000     O          -0.712365           
         O11       1.0000    0.95720   0.16640   0.93960   Biso      1.000     O          -0.712365           
         O12       1.0000    0.16640   0.95720   0.43960   Biso      1.000     O          -0.712365           
         O13       1.0000    0.04208   0.09968   0.66210   Biso      1.000     O          -0.702152           
         O14       1.0000    0.99020   0.87860   0.63140   Biso      1.000     O          -0.625616           
         O15       1.0000    0.01290   0.87090   0.51080   Biso      1.000     O          -0.771245           
         O16       1.0000    0.87910   0.02410   0.44040   Biso      1.000     O          -0.667762           
         O17       1.0000    0.87850   0.01730   0.71900   Biso      1.000     O          -0.699594           
         O18       1.0000    0.90032   0.95792   0.83790   Biso      1.000     O          -0.702152           
         O19       1.0000    0.12140   0.00980   0.86860   Biso      1.000     O          -0.625616           
         O20       1.0000    0.12910   0.98710   0.98920   Biso      1.000     O          -0.771245           
         O21       1.0000    0.97590   0.12090   0.05960   Biso      1.000     O          -0.667762           
         O22       1.0000    0.04280   0.83360   0.06040   Biso      1.000     O          -0.712365           
         O23       1.0000    0.98270   0.12150   0.78100   Biso      1.000     O          -0.699594           
         O24       1.0000    0.01730   0.87850   0.21900   Biso      1.000     O          -0.699594 