
##########################################################################
#               Crystallographic Information Format file
#               Produced by PyCifRW module
#
#  This is a CIF file.  CIF has been adopted by the International
#  Union of Crystallography as the standard for data archiving and
#  transmission.
#
#  For information on this file format, follow the CIF links at
#  http://www.iucr.org
##########################################################################

data_image0

_cell_length_a                          15.2265
_cell_length_b                          15.2265
_cell_length_c                          18.5799
_cell_angle_alpha                       76.1765
_cell_angle_beta                        76.1765
_cell_angle_gamma                       68.3777
_symmetry_space_group_name_H-M          'P 1'
_symmetry_int_tables_number             1
loop_
  _symmetry_equiv_pos_as_xyz
         'x, y, z' 
loop_
  _atom_site_label
  _atom_site_occupancy
  _atom_site_fract_x
  _atom_site_fract_y
  _atom_site_fract_z
  _atom_site_thermal_displace_type
  _atom_site_B_iso_or_equiv
  _atom_site_type_symbol
  _atom_site_charge
         C1        1.0000    0.47500   0.77580   0.50210   Biso      1.000     C          -0.042619           
         C2        1.0000    0.51910   0.23030   0.09930   Biso      1.000     C          -0.055033000000000006         
         C3        1.0000    0.52930   0.17650   0.04510   Biso      1.000     C          -0.074914           
         C4        1.0000    0.53340   0.08220   0.06500   Biso      1.000     C          -0.126223           
         C5        1.0000    0.31950   0.53130   0.99980   Biso      1.000     C          0.665675  
         C6        1.0000    0.14530   0.55510   0.05400   Biso      1.000     C          -0.080728           
         C7        1.0000    0.22420   0.52500   0.99790   Biso      1.000     C          -0.042602999999999995         
         C8        1.0000    0.21010   0.49070   0.94180   Biso      1.000     C          -0.081765           
         C9        1.0000    0.12320   0.48100   0.94150   Biso      1.000     C          -0.12523199999999998          
         C10       1.0000    0.51810   0.18390   0.17470   Biso      1.000     C          -0.076225           
         C11       1.0000    0.04570   0.50450   0.99970   Biso      1.000     C          0.079713  
         C12       1.0000    0.57920   0.86980   0.10970   Biso      1.000     C          -0.123274           
         C13       1.0000    0.57500   0.77820   0.12740   Biso      1.000     C          -0.078027           
         C14       1.0000    0.52640   0.74680   0.19640   Biso      1.000     C          -0.067442           
         C15       1.0000    0.48470   0.80950   0.24750   Biso      1.000     C          -0.07785399999999999          
         C16       1.0000    0.48480   0.90240   0.22980   Biso      1.000     C          -0.12732100000000002          
         C17       1.0000    0.53500   0.93380   0.15830   Biso      1.000     C          0.07497899999999999           
         C18       1.0000    0.53110   0.03610   0.13890   Biso      1.000     C          0.081506  
         C19       1.0000    0.52340   0.08780   0.19260   Biso      1.000     C          -0.125879           
         C20       1.0000    0.51749   0.64889   0.21500   Biso      1.000     C          0.673804  
         C21       1.0000    0.66770   0.49110   0.42040   Biso      1.000     C          0.669025  
         C22       1.0000    0.49110   0.66770   0.92040   Biso      1.000     C          0.6691    
         C23       1.0000    0.96390   0.46890   0.36110   Biso      1.000     C          0.081354  
         C24       1.0000    0.33230   0.50890   0.57960   Biso      1.000     C          0.66903   
         C25       1.0000    0.81610   0.48190   0.32530   Biso      1.000     C          -0.076263           
         C26       1.0000    0.76970   0.48090   0.40070   Biso      1.000     C          -0.055033000000000006         
         C27       1.0000    0.82350   0.47070   0.45490   Biso      1.000     C          -0.07513  
         C28       1.0000    0.91780   0.46660   0.43500   Biso      1.000     C          -0.126005           
         C29       1.0000    0.46870   0.68050   0.50020   Biso      1.000     C          0.665671  
         C30       1.0000    0.45660   0.93980   0.44520   Biso      1.000     C          -0.126301           
         C31       1.0000    0.44490   0.85470   0.44600   Biso      1.000     C          -0.080719           
         C32       1.0000    0.91220   0.47660   0.30740   Biso      1.000     C          -0.125952           
         C33       1.0000    0.50930   0.78990   0.55820   Biso      1.000     C          -0.08177000000000001          
         C34       1.0000    0.49550   0.95430   0.50030   Biso      1.000     C          0.07968099999999999           
         C35       1.0000    0.35111   0.48251   0.28500   Biso      1.000     C          0.6737609999999999  
         C36       1.0000    0.13020   0.42080   0.39030   Biso      1.000     C          -0.12401199999999998          
         C37       1.0000    0.22180   0.42500   0.37260   Biso      1.000     C          -0.078983           
         C38       1.0000    0.25320   0.47360   0.30360   Biso      1.000     C          -0.067375           
         C39       1.0000    0.19050   0.51530   0.25250   Biso      1.000     C          -0.077749           
         C40       1.0000    0.09760   0.51520   0.27020   Biso      1.000     C          -0.127453           
         C41       1.0000    0.06620   0.46500   0.34170   Biso      1.000     C          0.076166  
         C42       1.0000    0.51900   0.87680   0.55850   Biso      1.000     C          -0.12524100000000002          
         C43       1.0000    0.18390   0.51810   0.67470   Biso      1.000     C          -0.076335           
         C44       1.0000    0.06020   0.54340   0.05480   Biso      1.000     C          -0.126281           
         C45       1.0000    0.17650   0.52930   0.54510   Biso      1.000     C          -0.075142           
         C46       1.0000    0.46660   0.91780   0.93500   Biso      1.000     C          -0.12626600000000002          
         C47       1.0000    0.68050   0.46870   0.00020   Biso      1.000     C          0.66575   
         C48       1.0000    0.93980   0.45660   0.94520   Biso      1.000     C          -0.126848           
         C49       1.0000    0.85470   0.44490   0.94600   Biso      1.000     C          -0.079127           
         C50       1.0000    0.77580   0.47500   0.00210   Biso      1.000     C          -0.042672           
         C51       1.0000    0.78990   0.50930   0.05820   Biso      1.000     C          -0.082161           
         C52       1.0000    0.87680   0.51900   0.05850   Biso      1.000     C          -0.12415999999999999          
         C53       1.0000    0.95430   0.49550   0.00030   Biso      1.000     C          0.077574  
         C54       1.0000    0.48251   0.35111   0.78500   Biso      1.000     C          0.673802  
         C55       1.0000    0.42080   0.13020   0.89030   Biso      1.000     C          -0.12330899999999999          
         C56       1.0000    0.42500   0.22180   0.87260   Biso      1.000     C          -0.078149           
         C57       1.0000    0.47360   0.25320   0.80360   Biso      1.000     C          -0.067492           
         C58       1.0000    0.51530   0.19050   0.75250   Biso      1.000     C          -0.077784           
         C59       1.0000    0.51520   0.09760   0.77020   Biso      1.000     C          -0.127333           
         C60       1.0000    0.23030   0.51910   0.59930   Biso      1.000     C          -0.055031           
         C61       1.0000    0.46890   0.96390   0.86110   Biso      1.000     C          0.08150800000000001           
         C62       1.0000    0.47660   0.91220   0.80740   Biso      1.000     C          -0.125421           
         C63       1.0000    0.47070   0.82350   0.95490   Biso      1.000     C          -0.07484099999999999          
         C64       1.0000    0.48090   0.76970   0.90070   Biso      1.000     C          -0.055554           
         C65       1.0000    0.46500   0.06620   0.84170   Biso      1.000     C          0.07493999999999999           
         C66       1.0000    0.50890   0.33230   0.07960   Biso      1.000     C          0.669027  
         C67       1.0000    0.48190   0.81610   0.82530   Biso      1.000     C          -0.07628099999999999          
         C68       1.0000    0.08220   0.53340   0.56500   Biso      1.000     C          -0.12600899999999998          
         C69       1.0000    0.53130   0.31950   0.49980   Biso      1.000     C          0.665747  
         C70       1.0000    0.55510   0.14530   0.55400   Biso      1.000     C          -0.079121           
         C71       1.0000    0.52500   0.22420   0.49790   Biso      1.000     C          -0.042679           
         C72       1.0000    0.49070   0.21010   0.44180   Biso      1.000     C          -0.082207           
         C73       1.0000    0.48100   0.12320   0.44150   Biso      1.000     C          -0.12421199999999999          
         C74       1.0000    0.50450   0.04570   0.49970   Biso      1.000     C          0.077568  
         C75       1.0000    0.64889   0.51749   0.71500   Biso      1.000     C          0.67374   
         C76       1.0000    0.54340   0.06020   0.55480   Biso      1.000     C          -0.126843           
         C77       1.0000    0.77820   0.57500   0.62740   Biso      1.000     C          -0.07909400000000001          
         C78       1.0000    0.74680   0.52640   0.69640   Biso      1.000     C          -0.06743400000000001          
         C79       1.0000    0.80950   0.48470   0.74750   Biso      1.000     C          -0.077691           
         C80       1.0000    0.90240   0.48480   0.72980   Biso      1.000     C          -0.12745599999999999          
         C81       1.0000    0.93380   0.53500   0.65830   Biso      1.000     C          0.076098  
         C82       1.0000    0.03610   0.53110   0.63890   Biso      1.000     C          0.08142200000000001           
         C83       1.0000    0.86980   0.57920   0.60970   Biso      1.000     C          -0.124028           
         C84       1.0000    0.08780   0.52340   0.69260   Biso      1.000     C          -0.12595599999999998          
         H1        1.0000    0.44552   0.95435   0.27128   Biso      1.000     H          0.092149  
         H2        1.0000    0.52114   0.05247   0.25416   Biso      1.000     H          0.084103  
         H3        1.0000    0.22403   0.51303   0.72088   Biso      1.000     H          0.11183199999999999           
         H4        1.0000    0.21161   0.53428   0.48344   Biso      1.000     H          0.08555499999999999           
         H5        1.0000    0.04199   0.53882   0.51877   Biso      1.000     H          0.082093  
         H6        1.0000    0.56586   0.99742   0.60193   Biso      1.000     H          0.0765    
         H7        1.0000    0.58980   0.15160   0.59969   Biso      1.000     H          0.09364600000000001           
         H8        1.0000    0.89174   0.62092   0.55280   Biso      1.000     H          0.09443700000000001           
         H9        1.0000    0.45312   0.11576   0.39228   Biso      1.000     H          0.084674  
         H10       1.0000    0.72781   0.61211   0.58454   Biso      1.000     H          0.099085  
         H11       1.0000    0.78218   0.44959   0.80566   Biso      1.000     H          0.092985  
         H12       1.0000    0.95435   0.44552   0.77128   Biso      1.000     H          0.092889  
         H13       1.0000    0.48700   0.77522   0.77961   Biso      1.000     H          0.11178800000000001           
         H14       1.0000    0.44959   0.78218   0.30566   Biso      1.000     H          0.09299600000000001           
         H15       1.0000    0.05247   0.52114   0.75416   Biso      1.000     H          0.084131  
         H16       1.0000    0.46969   0.27249   0.39410   Biso      1.000     H          0.10564200000000001           
         H17       1.0000    0.61211   0.72781   0.08454   Biso      1.000     H          0.09918400000000001           
         H18       1.0000    0.04565   0.55448   0.22872   Biso      1.000     H          0.09244400000000001           
         H19       1.0000    0.11576   0.45312   0.89228   Biso      1.000     H          0.086149  
         H20       1.0000    0.46572   0.78839   0.01656   Biso      1.000     H          0.085414  
         H21       1.0000    0.53031   0.72751   0.60590   Biso      1.000     H          0.105688  
         H22       1.0000    0.41020   0.84840   0.40031   Biso      1.000     H          0.09377   
         H23       1.0000    0.43300   0.00031   0.39685   Biso      1.000     H          0.077292  
         H24       1.0000    0.95801   0.46118   0.48123   Biso      1.000     H          0.082107  
         H25       1.0000    0.54688   0.88424   0.60772   Biso      1.000     H          0.086194  
         H26       1.0000    0.10826   0.37908   0.44720   Biso      1.000     H          0.094503  
         H27       1.0000    0.62036   0.89393   0.05324   Biso      1.000     H          0.093613  
         H28       1.0000    0.27219   0.38789   0.41546   Biso      1.000     H          0.09917000000000001           
         H29       1.0000    0.94753   0.47886   0.24584   Biso      1.000     H          0.084049  
         H30       1.0000    0.51303   0.22403   0.22088   Biso      1.000     H          0.111949  
         H31       1.0000    0.53428   0.21161   0.98344   Biso      1.000     H          0.085565  
         H32       1.0000    0.53882   0.04199   0.01877   Biso      1.000     H          0.08222   
         H33       1.0000    0.99969   0.56700   0.10315   Biso      1.000     H          0.077296  
         H34       1.0000    0.15160   0.58980   0.09969   Biso      1.000     H          0.09375700000000001           
         H35       1.0000    0.27249   0.46969   0.89410   Biso      1.000     H          0.105675  
         H36       1.0000    0.21782   0.55041   0.19434   Biso      1.000     H          0.09297899999999999           
         H37       1.0000    0.46118   0.95801   0.98123   Biso      1.000     H          0.0822    
         H38       1.0000    0.77597   0.48697   0.27912   Biso      1.000     H          0.111926  
         H39       1.0000    0.84840   0.41020   0.90031   Biso      1.000     H          0.093628  
         H40       1.0000    0.72751   0.53031   0.10590   Biso      1.000     H          0.105646  
         H41       1.0000    0.88424   0.54688   0.10772   Biso      1.000     H          0.08468300000000001           
         H42       1.0000    0.37964   0.10607   0.94676   Biso      1.000     H          0.093557  
         H43       1.0000    0.38789   0.27219   0.91546   Biso      1.000     H          0.099097  
         H44       1.0000    0.55041   0.21782   0.69434   Biso      1.000     H          0.09300599999999999           
         H45       1.0000    0.55448   0.04565   0.72872   Biso      1.000     H          0.0926    
         H46       1.0000    0.47886   0.94753   0.74584   Biso      1.000     H          0.08416   
         H47       1.0000    0.78839   0.46572   0.51656   Biso      1.000     H          0.085582  
         H48       1.0000    0.00258   0.43414   0.89807   Biso      1.000     H          0.076487  
         O1        1.0000    0.52355   0.37855   0.44120   Biso      1.000     O          -0.613325           
         O2        1.0000    0.62239   0.48239   0.78070   Biso      1.000     O          -0.637659           
         O3        1.0000    0.62073   0.50893   0.36930   Biso      1.000     O          -0.590879           
         O4        1.0000    0.66828   0.45568   0.93910   Biso      1.000     O          -0.6560090000000001           
         O5        1.0000    0.51761   0.37761   0.71930   Biso      1.000     O          -0.637523           
         O6        1.0000    0.46034   0.39754   0.83760   Biso      1.000     O          -0.639969           
         O7        1.0000    0.62145   0.47645   0.05880   Biso      1.000     O          -0.613324           
         O8        1.0000    0.60246   0.53966   0.66240   Biso      1.000     O          -0.639937           
         O9        1.0000    0.49107   0.37927   0.13070   Biso      1.000     O          -0.590853           
         O10       1.0000    0.48455   0.63015   0.98870   Biso      1.000     O          -0.6918270000000001           
         O11       1.0000    0.36985   0.51545   0.51130   Biso      1.000     O          -0.691916           
         O12       1.0000    0.48239   0.62239   0.28070   Biso      1.000     O          -0.637542           
         O13       1.0000    0.50893   0.62073   0.86930   Biso      1.000     O          -0.590831           
         O14       1.0000    0.37855   0.52355   0.94120   Biso      1.000     O          -0.613453           
         O15       1.0000    0.53966   0.60246   0.16240   Biso      1.000     O          -0.639889           
         O16       1.0000    0.51545   0.36985   0.01130   Biso      1.000     O          -0.6919   
         O17       1.0000    0.33172   0.54432   0.06090   Biso      1.000     O          -0.655948           
         O18       1.0000    0.37927   0.49107   0.63070   Biso      1.000     O          -0.5908899999999999           
         O19       1.0000    0.37761   0.51761   0.21930   Biso      1.000     O          -0.637648           
         O20       1.0000    0.47645   0.62145   0.55880   Biso      1.000     O          -0.613432           
         O21       1.0000    0.39754   0.46034   0.33760   Biso      1.000     O          -0.639868           
         O22       1.0000    0.63015   0.48455   0.48870   Biso      1.000     O          -0.691901           
         O23       1.0000    0.45568   0.66828   0.43910   Biso      1.000     O          -0.6559510000000001           
         O24       1.0000    0.54432   0.33172   0.56090   Biso      1.000     O          -0.655993           
         Y1        1.0000    0.54357   0.46193   0.60460   Biso      1.000     Y          1.8704509999999999  
         Y2        1.0000    0.53807   0.45643   0.89540   Biso      1.000     Y          1.8704599999999998  
         Y3        1.0000    0.45643   0.53807   0.39540   Biso      1.000     Y          1.870425  
         Y4        1.0000    0.46193   0.54357   0.10460   Biso      1.000     Y          1.870434 