
##########################################################################
#               Crystallographic Information Format file
#               Produced by PyCifRW module
#
#  This is a CIF file.  CIF has been adopted by the International
#  Union of Crystallography as the standard for data archiving and
#  transmission.
#
#  For information on this file format, follow the CIF links at
#  http://www.iucr.org
##########################################################################

data_image0

_cell_length_a                          11.933
_cell_length_b                          11.933
_cell_length_c                          8.5486
_cell_angle_alpha                       90
_cell_angle_beta                        90
_cell_angle_gamma                       90
_symmetry_space_group_name_H-M          'P 1'
_symmetry_int_tables_number             1
loop_
  _symmetry_equiv_pos_as_xyz
         'x, y, z' 
loop_
  _atom_site_label
  _atom_site_occupancy
  _atom_site_fract_x
  _atom_site_fract_y
  _atom_site_fract_z
  _atom_site_thermal_displace_type
  _atom_site_B_iso_or_equiv
  _atom_site_type_symbol
  _atom_site_charge
         Ag1       1.0000    0.50000   0.50000   0.25000   Biso      1.000     Ag          0.328623  
         Ag2       1.0000    0.50000   0.50000   0.75000   Biso      1.000     Ag          0.32862   
         Ag3       1.0000    0.00000   0.50000   0.00000   Biso      1.000     Ag          0.361385  
         Ag4       1.0000    0.50000   0.00000   0.50000   Biso      1.000     Ag          0.361345  
         C1        1.0000    0.20410   0.50000   0.70940   Biso      1.000     C          -0.149694           
         C2        1.0000    0.24160   0.50000   0.87660   Biso      1.000     C          0.251806  
         C3        1.0000    0.50000   0.75840   0.37660   Biso      1.000     C          0.251809  
         C4        1.0000    0.79590   0.50000   0.70940   Biso      1.000     C          -0.149691           
         C5        1.0000    0.75840   0.50000   0.87660   Biso      1.000     C          0.251807  
         C6        1.0000    0.50000   0.79590   0.20940   Biso      1.000     C          -0.149706           
         C7        1.0000    0.50000   0.79590   0.79060   Biso      1.000     C          -0.149697           
         C8        1.0000    0.50000   0.75840   0.62340   Biso      1.000     C          0.251806  
         C9        1.0000    0.50000   0.20410   0.79060   Biso      1.000     C          -0.149728           
         C10       1.0000    0.50000   0.24160   0.37660   Biso      1.000     C          0.251807  
         C11       1.0000    0.50000   0.24160   0.62340   Biso      1.000     C          0.251804  
         C12       1.0000    0.79590   0.50000   0.29060   Biso      1.000     C          -0.1497   
         C13       1.0000    0.75840   0.50000   0.12340   Biso      1.000     C          0.251805  
         C14       1.0000    0.20410   0.50000   0.29060   Biso      1.000     C          -0.149701           
         C15       1.0000    0.24160   0.50000   0.12340   Biso      1.000     C          0.251807  
         C16       1.0000    0.50000   0.20410   0.20940   Biso      1.000     C          -0.149725           
         N1        1.0000    0.17240   0.50000   0.00000   Biso      1.000     N          -0.298144           
         N2        1.0000    0.82760   0.50000   0.00000   Biso      1.000     N          -0.298143           
         N3        1.0000    0.50000   0.34900   0.41850   Biso      1.000     N          -0.125538           
         N4        1.0000    0.50000   0.65100   0.41850   Biso      1.000     N          -0.125532           
         N5        1.0000    0.50000   0.65100   0.58150   Biso      1.000     N          -0.125522           
         N6        1.0000    0.65100   0.50000   0.91850   Biso      1.000     N          -0.125531           
         N7        1.0000    0.50000   0.17240   0.50000   Biso      1.000     N          -0.29814  
         N8        1.0000    0.50000   0.34900   0.58150   Biso      1.000     N          -0.125524           
         N9        1.0000    0.65100   0.50000   0.08150   Biso      1.000     N          -0.125518           
         N10       1.0000    0.34900   0.50000   0.08150   Biso      1.000     N          -0.12553  
         N11       1.0000    0.34900   0.50000   0.91850   Biso      1.000     N          -0.125519           
         N12       1.0000    0.50000   0.82760   0.50000   Biso      1.000     N          -0.298139 