
##########################################################################
#               Crystallographic Information Format file
#               Produced by PyCifRW module
#
#  This is a CIF file.  CIF has been adopted by the International
#  Union of Crystallography as the standard for data archiving and
#  transmission.
#
#  For information on this file format, follow the CIF links at
#  http://www.iucr.org
##########################################################################

data_image0

_cell_length_a                          10.08
_cell_length_b                          13.063
_cell_length_c                          17.815
_cell_angle_alpha                       79.029
_cell_angle_beta                        86.325
_cell_angle_gamma                       78.211
_symmetry_space_group_name_H-M          'P 1'
_symmetry_int_tables_number             1
loop_
  _symmetry_equiv_pos_as_xyz
         'x, y, z' 
loop_
  _atom_site_label
  _atom_site_occupancy
  _atom_site_fract_x
  _atom_site_fract_y
  _atom_site_fract_z
  _atom_site_thermal_displace_type
  _atom_site_B_iso_or_equiv
  _atom_site_type_symbol
  _atom_site_charge
         C1        1.0000    0.99390   0.58742   0.20872   Biso      1.000     C          -0.134501           
         C2        1.0000    0.85240   0.90510   0.97563   Biso      1.000     C          -0.056601           
         C3        1.0000    0.89820   0.89020   0.04621   Biso      1.000     C          -0.11265  
         C4        1.0000    0.12270   0.83340   0.10710   Biso      1.000     C          -0.160003           
         C5        1.0000    0.18390   0.60860   0.27530   Biso      1.000     C          -0.160303           
         C6        1.0000    0.19470   0.69990   0.22260   Biso      1.000     C          -0.144156           
         C7        1.0000    0.10400   0.73500   0.15990   Biso      1.000     C          0.10588399999999999           
         C8        1.0000    0.00290   0.67940   0.15630   Biso      1.000     C          -0.156479           
         C9        1.0000    0.53790   0.68190   0.68312   Biso      1.000     C          -0.134114           
         C10       1.0000    0.08430   0.55246   0.26822   Biso      1.000     C          0.106452  
         C11       1.0000    0.08350   0.45266   0.32679   Biso      1.000     C          -0.163684           
         C12       1.0000    0.07850   0.29640   0.26790   Biso      1.000     C          0.08914   
         C13       1.0000    0.88170   0.37400   0.30813   Biso      1.000     C          -0.118151           
         C14       1.0000    0.86780   0.28760   0.27866   Biso      1.000     C          -0.040477           
         C15       1.0000    0.71430   0.85680   0.28444   Biso      1.000     C          -0.129219           
         C16       1.0000    0.79540   0.02450   0.22789   Biso      1.000     C          0.566529  
         C17       1.0000    0.68780   0.96460   0.24803   Biso      1.000     C          -0.019042           
         C18       1.0000    0.55110   0.01110   0.23342   Biso      1.000     C          -0.14541199999999999          
         C19       1.0000    0.30550   0.01010   0.23183   Biso      1.000     C          0.565258  
         C20       1.0000    0.44880   0.95490   0.25199   Biso      1.000     C          -0.020349000000000003         
         C21       1.0000    0.47620   0.84980   0.28920   Biso      1.000     C          -0.131125           
         C22       1.0000    0.61290   0.80130   0.30419   Biso      1.000     C          -0.067705           
         C23       1.0000    0.93750   0.14800   0.03011   Biso      1.000     C          0.074112  
         C24       1.0000    0.14760   0.09490   0.02437   Biso      1.000     C          -0.056601           
         C25       1.0000    0.06250   0.85200   0.96989   Biso      1.000     C          0.074112  
         C26       1.0000    0.10180   0.10980   0.95379   Biso      1.000     C          -0.11265  
         C27       1.0000    0.36270   0.02220   0.49873   Biso      1.000     C          -0.14535599999999999          
         C28       1.0000    0.43260   0.07870   0.44151   Biso      1.000     C          0.109126  
         C29       1.0000    0.59640   0.68540   0.56289   Biso      1.000     C          0.056920000000000005          
         C30       1.0000    0.95620   0.10350   0.46869   Biso      1.000     C          -0.171901           
         C31       1.0000    0.01550   0.97430   0.57644   Biso      1.000     C          -0.144006           
         C32       1.0000    0.97130   0.07860   0.54489   Biso      1.000     C          0.11427799999999999           
         C33       1.0000    0.94460   0.16090   0.59683   Biso      1.000     C          -0.165478           
         C34       1.0000    0.74780   0.29940   0.54620   Biso      1.000     C          0.084243  
         C35       1.0000    0.94150   0.34990   0.53316   Biso      1.000     C          -0.148946           
         C36       1.0000    0.83900   0.43180   0.50298   Biso      1.000     C          -0.053515           
         C37       1.0000    0.64160   0.83820   0.61742   Biso      1.000     C          -0.162501           
         C38       1.0000    0.56740   0.92130   0.55849   Biso      1.000     C          0.109123  
         C39       1.0000    0.42770   0.94550   0.55403   Biso      1.000     C          -0.14299800000000001          
         C40       1.0000    0.63730   0.97780   0.50127   Biso      1.000     C          -0.145353           
         C41       1.0000    0.16100   0.56820   0.49702   Biso      1.000     C          -0.053517999999999996         
         C42       1.0000    0.05850   0.65010   0.46684   Biso      1.000     C          -0.14894300000000002          
         C43       1.0000    0.25220   0.70060   0.45380   Biso      1.000     C          0.084243  
         C44       1.0000    0.05540   0.83910   0.40317   Biso      1.000     C          -0.165475           
         C45       1.0000    0.02870   0.92140   0.45511   Biso      1.000     C          0.114247  
         C46       1.0000    0.98450   0.02570   0.42356   Biso      1.000     C          -0.143993           
         C47       1.0000    0.04380   0.89650   0.53131   Biso      1.000     C          -0.171872           
         C48       1.0000    0.40360   0.31460   0.43711   Biso      1.000     C          0.056920000000000005          
         C49       1.0000    0.46210   0.31810   0.31688   Biso      1.000     C          -0.134114           
         C50       1.0000    0.49400   0.40480   0.34267   Biso      1.000     C          -0.044141           
         C51       1.0000    0.35840   0.16180   0.38258   Biso      1.000     C          -0.162501           
         C52       1.0000    0.57230   0.05450   0.44597   Biso      1.000     C          -0.142999           
         C53       1.0000    0.87730   0.16660   0.89290   Biso      1.000     C          -0.160003           
         C54       1.0000    0.50600   0.59520   0.65733   Biso      1.000     C          -0.044141           
         C55       1.0000    0.80530   0.30010   0.77740   Biso      1.000     C          -0.144157           
         C56       1.0000    0.38710   0.19870   0.69581   Biso      1.000     C          -0.067714           
         C57       1.0000    0.52380   0.15020   0.71080   Biso      1.000     C          -0.131126           
         C58       1.0000    0.55120   0.04510   0.74801   Biso      1.000     C          -0.02035  
         C59       1.0000    0.69450   0.98990   0.76817   Biso      1.000     C          0.565258  
         C60       1.0000    0.44890   0.98890   0.76658   Biso      1.000     C          -0.14540899999999998          
         C61       1.0000    0.31220   0.03540   0.75197   Biso      1.000     C          -0.019043           
         C62       1.0000    0.20460   0.97550   0.77211   Biso      1.000     C          0.566529  
         C63       1.0000    0.28570   0.14320   0.71556   Biso      1.000     C          -0.129211           
         C64       1.0000    0.11830   0.62600   0.69187   Biso      1.000     C          -0.118151           
         C65       1.0000    0.92150   0.70360   0.73210   Biso      1.000     C          0.08914   
         C66       1.0000    0.91650   0.54734   0.67321   Biso      1.000     C          -0.163684           
         C67       1.0000    0.91570   0.44754   0.73178   Biso      1.000     C          0.106448  
         C68       1.0000    0.00610   0.41258   0.79128   Biso      1.000     C          -0.134498           
         C69       1.0000    0.99710   0.32060   0.84370   Biso      1.000     C          -0.15648399999999998          
         C70       1.0000    0.89600   0.26500   0.84010   Biso      1.000     C          0.10588800000000001           
         C71       1.0000    0.13220   0.71240   0.72134   Biso      1.000     C          -0.040477           
         C72       1.0000    0.81610   0.39140   0.72470   Biso      1.000     C          -0.160301           
         Cd1       1.0000    0.50000   0.50000   0.50000   Biso      1.000     Cd          0.837909  
         Cd2       1.0000    0.04291   0.09656   0.19901   Biso      1.000     Cd          0.830276  
         Cd3       1.0000    0.95709   0.90344   0.80099   Biso      1.000     Cd          0.830276  
         H1        1.0000    0.10820   0.89300   0.13390   Biso      1.000     H          0.127545  
         H2        1.0000    0.92620   0.17410   0.44590   Biso      1.000     H          0.100961  
         H3        1.0000    0.63140   0.70730   0.51420   Biso      1.000     H          0.106281  
         H4        1.0000    0.52350   0.69740   0.73220   Biso      1.000     H          0.140795  
         H5        1.0000    0.46540   0.54270   0.68690   Biso      1.000     H          0.126899  
         H6        1.0000    0.73780   0.82700   0.60450   Biso      1.000     H          0.11913800000000001           
         H7        1.0000    0.62830   0.86120   0.66650   Biso      1.000     H          0.131801  
         H8        1.0000    0.37670   0.90950   0.59140   Biso      1.000     H          0.111972  
         H9        1.0000    0.73150   0.96410   0.50180   Biso      1.000     H          0.106404  
         H10       1.0000    0.14860   0.50050   0.51980   Biso      1.000     H          0.109491  
         H11       1.0000    0.96680   0.64900   0.46500   Biso      1.000     H          0.142147  
         H12       1.0000    0.31720   0.74270   0.44050   Biso      1.000     H          0.10539200000000001           
         H13       1.0000    0.96970   0.83350   0.38410   Biso      1.000     H          0.139942  
         H14       1.0000    0.11060   0.86380   0.35950   Biso      1.000     H          0.136687  
         H15       1.0000    0.97330   0.04480   0.37100   Biso      1.000     H          0.106939  
         H16       1.0000    0.02670   0.95520   0.62900   Biso      1.000     H          0.10694000000000001           
         H17       1.0000    0.07380   0.82590   0.55410   Biso      1.000     H          0.100958  
         H18       1.0000    0.47650   0.30260   0.26780   Biso      1.000     H          0.140795  
         H19       1.0000    0.53460   0.45730   0.31310   Biso      1.000     H          0.126899  
         H20       1.0000    0.26220   0.17300   0.39550   Biso      1.000     H          0.11913800000000001           
         H21       1.0000    0.37170   0.13880   0.33350   Biso      1.000     H          0.131801  
         H22       1.0000    0.62330   0.09050   0.40860   Biso      1.000     H          0.111972  
         H23       1.0000    0.26850   0.03590   0.49820   Biso      1.000     H          0.106405  
         H24       1.0000    0.82430   0.58150   0.65950   Biso      1.000     H          0.110865  
         H25       1.0000    0.82900   0.71890   0.74340   Biso      1.000     H          0.10081699999999999           
         H26       1.0000    0.18620   0.57860   0.67150   Biso      1.000     H          0.141894  
         H27       1.0000    0.21310   0.73550   0.72320   Biso      1.000     H          0.11794   
         H28       1.0000    0.19670   0.17710   0.70480   Biso      1.000     H          0.12140699999999999           
         H29       1.0000    0.47080   0.91770   0.78960   Biso      1.000     H          0.11667999999999999           
         H30       1.0000    0.59320   0.18760   0.69620   Biso      1.000     H          0.121358  
         H31       1.0000    0.15050   0.83130   0.95150   Biso      1.000     H          0.10898599999999999           
         H32       1.0000    0.36860   0.29270   0.48580   Biso      1.000     H          0.106281  
         H33       1.0000    0.88940   0.13620   0.64050   Biso      1.000     H          0.136687  
         H34       1.0000    0.03030   0.16650   0.61590   Biso      1.000     H          0.139942  
         H35       1.0000    0.68280   0.25730   0.55950   Biso      1.000     H          0.10539200000000001           
         H36       1.0000    0.24360   0.58530   0.31550   Biso      1.000     H          0.117443  
         H37       1.0000    0.26070   0.73820   0.22790   Biso      1.000     H          0.121609  
         H38       1.0000    0.93940   0.70390   0.11800   Biso      1.000     H          0.11178900000000001           
         H39       1.0000    0.92740   0.54920   0.20400   Biso      1.000     H          0.119442  
         H40       1.0000    0.03580   0.47250   0.37250   Biso      1.000     H          0.126296  
         H41       1.0000    0.17570   0.41850   0.34050   Biso      1.000     H          0.110865  
         H42       1.0000    0.17100   0.28110   0.25660   Biso      1.000     H          0.10081699999999999           
         H43       1.0000    0.81380   0.42140   0.32850   Biso      1.000     H          0.141894  
         H44       1.0000    0.78690   0.26450   0.27680   Biso      1.000     H          0.11794   
         H45       1.0000    0.21520   0.82370   0.08700   Biso      1.000     H          0.13103499999999998           
         H46       1.0000    0.52920   0.08230   0.21040   Biso      1.000     H          0.11667999999999999           
         H47       1.0000    0.40680   0.81240   0.30380   Biso      1.000     H          0.121358  
         H48       1.0000    0.80330   0.82290   0.29520   Biso      1.000     H          0.12140699999999999           
         H49       1.0000    0.23770   0.07000   0.03770   Biso      1.000     H          0.120322  
         H50       1.0000    0.03320   0.35100   0.53500   Biso      1.000     H          0.142147  
         H51       1.0000    0.85140   0.49950   0.48020   Biso      1.000     H          0.109491  
         H52       1.0000    0.76230   0.93000   0.96230   Biso      1.000     H          0.120322  
         H53       1.0000    0.96420   0.52750   0.62750   Biso      1.000     H          0.126296  
         H54       1.0000    0.84950   0.16870   0.04850   Biso      1.000     H          0.10898599999999999           
         H55       1.0000    0.07260   0.45080   0.79600   Biso      1.000     H          0.119442  
         H56       1.0000    0.89180   0.10700   0.86610   Biso      1.000     H          0.127545  
         H57       1.0000    0.73930   0.26180   0.77210   Biso      1.000     H          0.121609  
         H58       1.0000    0.75640   0.41470   0.68450   Biso      1.000     H          0.117443  
         H59       1.0000    0.84620   0.90060   0.09010   Biso      1.000     H          0.133272  
         H60       1.0000    0.78480   0.17630   0.91300   Biso      1.000     H          0.13103499999999998           
         H61       1.0000    0.15380   0.09940   0.90990   Biso      1.000     H          0.133272  
         H62       1.0000    0.06060   0.29610   0.88200   Biso      1.000     H          0.11178900000000001           
         N1        1.0000    0.71950   0.40120   0.51075   Biso      1.000     N          -0.28723000000000004          
         N2        1.0000    0.54330   0.59990   0.58351   Biso      1.000     N          -0.254975           
         N3        1.0000    0.59330   0.73760   0.62285   Biso      1.000     N          0.067109  
         N4        1.0000    0.28050   0.59880   0.48925   Biso      1.000     N          -0.287229           
         N5        1.0000    0.12290   0.73439   0.43996   Biso      1.000     N          0.088065  
         N6        1.0000    0.87710   0.26561   0.56004   Biso      1.000     N          0.08806599999999999           
         N7        1.0000    0.96820   0.14240   0.95775   Biso      1.000     N          0.08445599999999999           
         N8        1.0000    0.40670   0.26240   0.37715   Biso      1.000     N          0.067109  
         N9        1.0000    0.00650   0.76020   0.74817   Biso      1.000     N          -0.29133000000000003          
         N10       1.0000    0.97850   0.62448   0.69898   Biso      1.000     N          0.075177  
         N11       1.0000    0.45670   0.40010   0.41649   Biso      1.000     N          -0.254975           
         N12       1.0000    0.04480   0.12110   0.07355   Biso      1.000     N          -0.273547           
         N13       1.0000    0.99350   0.23980   0.25183   Biso      1.000     N          -0.29133000000000003          
         N14       1.0000    0.02150   0.37552   0.30102   Biso      1.000     N          0.075177  
         N15       1.0000    0.03180   0.85760   0.04225   Biso      1.000     N          0.08445599999999999           
         N16       1.0000    0.95520   0.87890   0.92645   Biso      1.000     N          -0.273547           
         O1        1.0000    0.91580   0.97763   0.24254   Biso      1.000     O          -0.565084           
         O2        1.0000    0.32510   0.39309   0.70982   Biso      1.000     O          -0.619929           
         O3        1.0000    0.76870   0.11818   0.19456   Biso      1.000     O          -0.593362           
         O4        1.0000    0.78730   0.04222   0.75257   Biso      1.000     O          -0.56805  
         O5        1.0000    0.71850   0.89547   0.79658   Biso      1.000     O          -0.5750109999999999           
         O6        1.0000    0.23130   0.88182   0.80544   Biso      1.000     O          -0.593362           
         O7        1.0000    0.08420   0.02237   0.75746   Biso      1.000     O          -0.5650850000000001           
         O8        1.0000    0.54210   0.64331   0.39939   Biso      1.000     O          -0.651267           
         O9        1.0000    0.67490   0.60691   0.29018   Biso      1.000     O          -0.619929           
         O10       1.0000    0.77230   0.65963   0.39112   Biso      1.000     O          -0.642809           
         O11       1.0000    0.21270   0.95778   0.24743   Biso      1.000     O          -0.56805  
         O12       1.0000    0.28150   0.10453   0.20342   Biso      1.000     O          -0.5750109999999999           
         O13       1.0000    0.22770   0.34037   0.60888   Biso      1.000     O          -0.642809           
         O14       1.0000    0.45790   0.35669   0.60061   Biso      1.000     O          -0.651267           
         S1        1.0000    0.65503   0.66585   0.34923   Biso      1.000     S          1.225871  
         S2        1.0000    0.34497   0.33415   0.65077   Biso      1.000     S          1.225871 