
##########################################################################
#               Crystallographic Information Format file
#               Produced by PyCifRW module
#
#  This is a CIF file.  CIF has been adopted by the International
#  Union of Crystallography as the standard for data archiving and
#  transmission.
#
#  For information on this file format, follow the CIF links at
#  http://www.iucr.org
##########################################################################

data_image0

_cell_length_a                          10.8724
_cell_length_b                          15.6218
_cell_length_c                          10.9924
_cell_angle_alpha                       90
_cell_angle_beta                        100.702
_cell_angle_gamma                       90
_symmetry_space_group_name_H-M          'P 1'
_symmetry_int_tables_number             1
loop_
  _symmetry_equiv_pos_as_xyz
         'x, y, z' 
loop_
  _atom_site_label
  _atom_site_occupancy
  _atom_site_fract_x
  _atom_site_fract_y
  _atom_site_fract_z
  _atom_site_thermal_displace_type
  _atom_site_B_iso_or_equiv
  _atom_site_type_symbol
  _atom_site_charge
         C1        1.0000    0.12270   0.62260   0.16860   Biso      1.000     C          0.605731  
         C2        1.0000    0.76350   0.67280   0.25960   Biso      1.000     C          -0.11233499999999999          
         C3        1.0000    0.89230   0.59010   0.14670   Biso      1.000     C          -0.088412           
         C4        1.0000    0.99650   0.63730   0.20120   Biso      1.000     C          -0.010375           
         C5        1.0000    0.86730   0.71970   0.31430   Biso      1.000     C          -0.010740999999999999         
         C6        1.0000    0.98280   0.70180   0.28440   Biso      1.000     C          -0.10516500000000001          
         C7        1.0000    0.85710   0.78970   0.40470   Biso      1.000     C          0.580641  
         C8        1.0000    0.14290   0.21030   0.59530   Biso      1.000     C          0.580641  
         C9        1.0000    0.16220   0.94390   0.61860   Biso      1.000     C          0.7180439999999999  
         C10       1.0000    0.27490   0.89210   0.67650   Biso      1.000     C          -0.044192           
         C11       1.0000    0.26350   0.82720   0.75960   Biso      1.000     C          -0.11233499999999999          
         C12       1.0000    0.39230   0.90990   0.64670   Biso      1.000     C          -0.088412           
         C13       1.0000    0.49650   0.86270   0.70120   Biso      1.000     C          -0.010374           
         C14       1.0000    0.36730   0.78030   0.81430   Biso      1.000     C          -0.010740999999999999         
         C15       1.0000    0.48280   0.79820   0.78440   Biso      1.000     C          -0.10516500000000001          
         C16       1.0000    0.35710   0.71030   0.90470   Biso      1.000     C          0.580641  
         C17       1.0000    0.62270   0.87740   0.66860   Biso      1.000     C          0.60573   
         C18       1.0000    0.33780   0.44390   0.88140   Biso      1.000     C          0.7180439999999999  
         C19       1.0000    0.22510   0.39210   0.82350   Biso      1.000     C          -0.044193           
         C20       1.0000    0.23650   0.32720   0.74040   Biso      1.000     C          -0.11233499999999999          
         C21       1.0000    0.10770   0.40990   0.85330   Biso      1.000     C          -0.088412           
         C22       1.0000    0.00350   0.36270   0.79880   Biso      1.000     C          -0.010374           
         C23       1.0000    0.13270   0.28030   0.68570   Biso      1.000     C          -0.010740999999999999         
         C24       1.0000    0.01720   0.29820   0.71560   Biso      1.000     C          -0.10516500000000001          
         C25       1.0000    0.77490   0.60790   0.17650   Biso      1.000     C          -0.044193           
         C26       1.0000    0.66220   0.55610   0.11860   Biso      1.000     C          0.7180439999999999  
         C27       1.0000    0.87730   0.37740   0.83140   Biso      1.000     C          0.60573   
         C28       1.0000    0.83780   0.05610   0.38140   Biso      1.000     C          0.7180439999999999  
         C29       1.0000    0.72510   0.10790   0.32350   Biso      1.000     C          -0.044193           
         C30       1.0000    0.73650   0.17280   0.24040   Biso      1.000     C          -0.11233499999999999          
         C31       1.0000    0.60770   0.09010   0.35330   Biso      1.000     C          -0.088412           
         C32       1.0000    0.50350   0.13730   0.29880   Biso      1.000     C          -0.010374           
         C33       1.0000    0.37730   0.12260   0.33140   Biso      1.000     C          0.60573   
         C34       1.0000    0.64290   0.28970   0.09530   Biso      1.000     C          0.580641  
         C35       1.0000    0.63270   0.21970   0.18570   Biso      1.000     C          -0.010740999999999999         
         C36       1.0000    0.51720   0.20180   0.21560   Biso      1.000     C          -0.10516500000000001          
         H1        1.0000    0.55240   0.76640   0.82070   Biso      1.000     H          0.135786  
         H2        1.0000    0.81440   0.18490   0.22110   Biso      1.000     H          0.11802   
         H3        1.0000    0.40040   0.95310   0.59070   Biso      1.000     H          0.14188499999999998           
         H4        1.0000    0.18560   0.81510   0.77890   Biso      1.000     H          0.11802   
         H5        1.0000    0.44760   0.23360   0.17930   Biso      1.000     H          0.135786  
         H6        1.0000    0.59960   0.04690   0.40930   Biso      1.000     H          0.14188499999999998           
         H7        1.0000    0.94760   0.26640   0.67930   Biso      1.000     H          0.135786  
         H8        1.0000    0.68560   0.68490   0.27890   Biso      1.000     H          0.11802   
         H9        1.0000    0.31440   0.31510   0.72110   Biso      1.000     H          0.11802   
         H10       1.0000    0.90040   0.54690   0.09070   Biso      1.000     H          0.14188499999999998           
         H11       1.0000    0.05240   0.73360   0.32070   Biso      1.000     H          0.135786  
         H12       1.0000    0.09960   0.45310   0.90930   Biso      1.000     H          0.14188499999999998           
         O1        1.0000    0.24230   0.20120   0.55300   Biso      1.000     O          -0.628855           
         O2        1.0000    0.93500   0.06200   0.33540   Biso      1.000     O          -0.7226   
         O3        1.0000    0.54890   0.33610   0.05880   Biso      1.000     O          -0.632916           
         O4        1.0000    0.74230   0.29880   0.05300   Biso      1.000     O          -0.628855           
         O5        1.0000    0.82820   0.01090   0.47320   Biso      1.000     O          -0.678072           
         O6        1.0000    0.28900   0.16990   0.28520   Biso      1.000     O          -0.680319           
         O7        1.0000    0.36500   0.06460   0.40680   Biso      1.000     O          -0.628037           
         O8        1.0000    0.86500   0.43540   0.90680   Biso      1.000     O          -0.628037           
         O9        1.0000    0.32820   0.48910   0.97320   Biso      1.000     O          -0.678072           
         O10       1.0000    0.78900   0.33010   0.78520   Biso      1.000     O          -0.680319           
         O11       1.0000    0.04890   0.16390   0.55880   Biso      1.000     O          -0.632916           
         O12       1.0000    0.13500   0.56460   0.09320   Biso      1.000     O          -0.628037           
         O13       1.0000    0.67180   0.51090   0.02680   Biso      1.000     O          -0.678072           
         O14       1.0000    0.17180   0.98910   0.52680   Biso      1.000     O          -0.678072           
         O15       1.0000    0.63500   0.93540   0.59320   Biso      1.000     O          -0.628037           
         O16       1.0000    0.71100   0.83010   0.71480   Biso      1.000     O          -0.680319           
         O17       1.0000    0.25770   0.70120   0.94700   Biso      1.000     O          -0.628855           
         O18       1.0000    0.45110   0.66390   0.94120   Biso      1.000     O          -0.632916           
         O19       1.0000    0.06500   0.93800   0.66460   Biso      1.000     O          -0.7226   
         O20       1.0000    0.56500   0.56200   0.16460   Biso      1.000     O          -0.7226   
         O21       1.0000    0.95110   0.83610   0.44120   Biso      1.000     O          -0.632916           
         O22       1.0000    0.75770   0.79880   0.44700   Biso      1.000     O          -0.628855           
         O23       1.0000    0.21100   0.66990   0.21480   Biso      1.000     O          -0.680319           
         O24       1.0000    0.43500   0.43800   0.83540   Biso      1.000     O          -0.7226   
         Tb1       1.0000    0.64243   0.39825   0.89562   Biso      1.000     Tb          2.041913  
         Tb2       1.0000    0.85757   0.89825   0.60438   Biso      1.000     Tb          2.041913  
         Tb3       1.0000    0.35757   0.60175   0.10438   Biso      1.000     Tb          2.041913  
         Tb4       1.0000    0.14243   0.10175   0.39562   Biso      1.000     Tb          2.041913 