
##########################################################################
#               Crystallographic Information Format file
#               Produced by PyCifRW module
#
#  This is a CIF file.  CIF has been adopted by the International
#  Union of Crystallography as the standard for data archiving and
#  transmission.
#
#  For information on this file format, follow the CIF links at
#  http://www.iucr.org
##########################################################################

data_image0

_cell_length_a                          10.844
_cell_length_b                          10.961
_cell_length_c                          15.585
_cell_angle_alpha                       90
_cell_angle_beta                        90
_cell_angle_gamma                       100.557
_symmetry_space_group_name_H-M          'P 1'
_symmetry_int_tables_number             1
loop_
  _symmetry_equiv_pos_as_xyz
         'x, y, z' 
loop_
  _atom_site_label
  _atom_site_occupancy
  _atom_site_fract_x
  _atom_site_fract_y
  _atom_site_fract_z
  _atom_site_thermal_displace_type
  _atom_site_B_iso_or_equiv
  _atom_site_type_symbol
  _atom_site_charge
         C1        1.0000    0.72610   0.82480   0.10760   Biso      1.000     C          -0.043501           
         C2        1.0000    0.87770   0.33450   0.37820   Biso      1.000     C          0.603106  
         C3        1.0000    0.14290   0.09580   0.20940   Biso      1.000     C          0.580496  
         C4        1.0000    0.22610   0.32480   0.39240   Biso      1.000     C          -0.043501           
         C5        1.0000    0.10930   0.35550   0.41000   Biso      1.000     C          -0.088171           
         C6        1.0000    0.00470   0.30090   0.36210   Biso      1.000     C          -0.010609           
         C7        1.0000    0.01750   0.21670   0.29750   Biso      1.000     C          -0.104436           
         C8        1.0000    0.13380   0.18690   0.27950   Biso      1.000     C          -0.009291           
         C9        1.0000    0.23760   0.24160   0.32690   Biso      1.000     C          -0.112398           
         C10       1.0000    0.83930   0.88360   0.05650   Biso      1.000     C          0.721702  
         C11       1.0000    0.33930   0.38360   0.44350   Biso      1.000     C          0.721702  
         C12       1.0000    0.37770   0.83450   0.12180   Biso      1.000     C          0.603106  
         C13       1.0000    0.99530   0.69910   0.63790   Biso      1.000     C          -0.010608           
         C14       1.0000    0.60930   0.85550   0.09000   Biso      1.000     C          -0.088171           
         C15       1.0000    0.50470   0.80090   0.13790   Biso      1.000     C          -0.010609           
         C16       1.0000    0.51750   0.71670   0.20250   Biso      1.000     C          -0.104436           
         C17       1.0000    0.63380   0.68690   0.22050   Biso      1.000     C          -0.009292           
         C18       1.0000    0.73760   0.74160   0.17310   Biso      1.000     C          -0.112398           
         C19       1.0000    0.66070   0.61640   0.55650   Biso      1.000     C          0.721702  
         C20       1.0000    0.12230   0.66550   0.62180   Biso      1.000     C          0.603106  
         C21       1.0000    0.85710   0.90420   0.79060   Biso      1.000     C          0.580496  
         C22       1.0000    0.64290   0.59580   0.29060   Biso      1.000     C          0.580497  
         C23       1.0000    0.26240   0.25840   0.82690   Biso      1.000     C          -0.112401           
         C24       1.0000    0.36620   0.31310   0.77950   Biso      1.000     C          -0.00929  
         C25       1.0000    0.48250   0.28330   0.79750   Biso      1.000     C          -0.104436           
         C26       1.0000    0.76240   0.75840   0.67310   Biso      1.000     C          -0.112401           
         C27       1.0000    0.86620   0.81310   0.72050   Biso      1.000     C          -0.00929  
         C28       1.0000    0.98250   0.78330   0.70250   Biso      1.000     C          -0.104436           
         C29       1.0000    0.77390   0.67520   0.60760   Biso      1.000     C          -0.043499           
         C30       1.0000    0.16070   0.11640   0.94350   Biso      1.000     C          0.721702  
         C31       1.0000    0.89070   0.64450   0.59000   Biso      1.000     C          -0.088172           
         C32       1.0000    0.49530   0.19910   0.86210   Biso      1.000     C          -0.010608           
         C33       1.0000    0.39070   0.14450   0.91000   Biso      1.000     C          -0.088172           
         C34       1.0000    0.27390   0.17520   0.89240   Biso      1.000     C          -0.043499           
         C35       1.0000    0.35710   0.40420   0.70940   Biso      1.000     C          0.580497  
         C36       1.0000    0.62230   0.16550   0.87820   Biso      1.000     C          0.603105  
         H1        1.0000    0.68420   0.77770   0.68540   Biso      1.000     H          0.118395  
         H2        1.0000    0.39880   0.08820   0.95330   Biso      1.000     H          0.141889  
         H3        1.0000    0.55240   0.32000   0.76610   Biso      1.000     H          0.137329  
         H4        1.0000    0.18420   0.27770   0.81460   Biso      1.000     H          0.118395  
         H5        1.0000    0.10120   0.41180   0.45330   Biso      1.000     H          0.141889  
         H6        1.0000    0.31580   0.22230   0.31460   Biso      1.000     H          0.118395  
         H7        1.0000    0.60120   0.91180   0.04670   Biso      1.000     H          0.141889  
         H8        1.0000    0.81580   0.72230   0.18540   Biso      1.000     H          0.118395  
         H9        1.0000    0.89880   0.58820   0.54670   Biso      1.000     H          0.141889  
         H10       1.0000    0.05240   0.82000   0.73390   Biso      1.000     H          0.137329  
         H11       1.0000    0.94760   0.18000   0.26610   Biso      1.000     H          0.137329  
         H12       1.0000    0.44760   0.68000   0.23390   Biso      1.000     H          0.137329  
         Ho1       1.0000    0.85707   0.10300   0.89797   Biso      1.000     Ho          2.041596  
         Ho2       1.0000    0.35707   0.60300   0.60203   Biso      1.000     Ho          2.041596  
         Ho3       1.0000    0.14293   0.89700   0.10203   Biso      1.000     Ho          2.041597  
         Ho4       1.0000    0.64293   0.39700   0.39797   Biso      1.000     Ho          2.041596  
         O1        1.0000    0.21150   0.71240   0.67020   Biso      1.000     O          -0.692914           
         O2        1.0000    0.13630   0.59060   0.56440   Biso      1.000     O          -0.617205           
         O3        1.0000    0.67070   0.52540   0.51060   Biso      1.000     O          -0.677735           
         O4        1.0000    0.56350   0.66320   0.56210   Biso      1.000     O          -0.726336           
         O5        1.0000    0.74320   0.55360   0.30060   Biso      1.000     O          -0.632039           
         O6        1.0000    0.54890   0.55950   0.33680   Biso      1.000     O          -0.629878           
         O7        1.0000    0.28850   0.78760   0.17020   Biso      1.000     O          -0.692914           
         O8        1.0000    0.36370   0.90940   0.06440   Biso      1.000     O          -0.617205           
         O9        1.0000    0.82930   0.97460   0.01060   Biso      1.000     O          -0.677735           
         O10       1.0000    0.93650   0.83680   0.06210   Biso      1.000     O          -0.726336           
         O11       1.0000    0.24320   0.05360   0.19940   Biso      1.000     O          -0.632039           
         O12       1.0000    0.04890   0.05950   0.16320   Biso      1.000     O          -0.629878           
         O13       1.0000    0.78850   0.28760   0.32980   Biso      1.000     O          -0.692914           
         O14       1.0000    0.86370   0.40940   0.43560   Biso      1.000     O          -0.617204           
         O15       1.0000    0.32930   0.47460   0.48940   Biso      1.000     O          -0.677735           
         O16       1.0000    0.43650   0.33680   0.43790   Biso      1.000     O          -0.726336           
         O17       1.0000    0.25680   0.44640   0.69940   Biso      1.000     O          -0.632039           
         O18       1.0000    0.45110   0.44050   0.66320   Biso      1.000     O          -0.629878           
         O19       1.0000    0.71150   0.21240   0.82980   Biso      1.000     O          -0.692914           
         O20       1.0000    0.63630   0.09060   0.93560   Biso      1.000     O          -0.617205           
         O21       1.0000    0.17070   0.02540   0.98940   Biso      1.000     O          -0.677735           
         O22       1.0000    0.06350   0.16320   0.93790   Biso      1.000     O          -0.726336           
         O23       1.0000    0.95110   0.94050   0.83680   Biso      1.000     O          -0.629878           
         O24       1.0000    0.75680   0.94640   0.80060   Biso      1.000     O          -0.632039 