
##########################################################################
#               Crystallographic Information Format file
#               Produced by PyCifRW module
#
#  This is a CIF file.  CIF has been adopted by the International
#  Union of Crystallography as the standard for data archiving and
#  transmission.
#
#  For information on this file format, follow the CIF links at
#  http://www.iucr.org
##########################################################################

data_image0

_cell_length_a                          10.8158
_cell_length_b                          10.9331
_cell_length_c                          15.5514
_cell_angle_alpha                       90
_cell_angle_beta                        90
_cell_angle_gamma                       100.557
_symmetry_space_group_name_H-M          'P 1'
_symmetry_int_tables_number             1
loop_
  _symmetry_equiv_pos_as_xyz
         'x, y, z' 
loop_
  _atom_site_label
  _atom_site_occupancy
  _atom_site_fract_x
  _atom_site_fract_y
  _atom_site_fract_z
  _atom_site_thermal_displace_type
  _atom_site_B_iso_or_equiv
  _atom_site_type_symbol
  _atom_site_charge
         C1        1.0000    0.77290   0.67510   0.10800   Biso      1.000     C          -0.044555           
         C2        1.0000    0.10860   0.35440   0.90960   Biso      1.000     C          -0.091786           
         C3        1.0000    0.00470   0.30170   0.86220   Biso      1.000     C          -0.008355           
         C4        1.0000    0.01810   0.21750   0.79720   Biso      1.000     C          -0.098566           
         C5        1.0000    0.13390   0.18680   0.77880   Biso      1.000     C          -0.013686           
         C6        1.0000    0.23740   0.24140   0.82640   Biso      1.000     C          -0.104544           
         C7        1.0000    0.16030   0.11550   0.44440   Biso      1.000     C          0.725088  
         C8        1.0000    0.22710   0.32490   0.89200   Biso      1.000     C          -0.044554           
         C9        1.0000    0.62230   0.16410   0.37750   Biso      1.000     C          0.604096  
         C10       1.0000    0.27290   0.17510   0.39200   Biso      1.000     C          -0.044555           
         C11       1.0000    0.39140   0.14560   0.40960   Biso      1.000     C          -0.091786           
         C12       1.0000    0.49530   0.19830   0.36220   Biso      1.000     C          -0.008355           
         C13       1.0000    0.48190   0.28250   0.29720   Biso      1.000     C          -0.098566           
         C14       1.0000    0.36610   0.31320   0.27880   Biso      1.000     C          -0.013686           
         C15       1.0000    0.26260   0.25860   0.32640   Biso      1.000     C          -0.104543           
         C16       1.0000    0.35700   0.40390   0.20820   Biso      1.000     C          0.579486  
         C17       1.0000    0.14300   0.09610   0.70820   Biso      1.000     C          0.579486  
         C18       1.0000    0.87770   0.33590   0.87750   Biso      1.000     C          0.604096  
         C19       1.0000    0.33970   0.38450   0.94440   Biso      1.000     C          0.725088  
         C20       1.0000    0.73740   0.74140   0.67360   Biso      1.000     C          -0.104545           
         C21       1.0000    0.63390   0.68680   0.72120   Biso      1.000     C          -0.013686           
         C22       1.0000    0.51810   0.71750   0.70280   Biso      1.000     C          -0.098565           
         C23       1.0000    0.50470   0.80170   0.63780   Biso      1.000     C          -0.008356           
         C24       1.0000    0.60860   0.85440   0.59040   Biso      1.000     C          -0.091785           
         C25       1.0000    0.72710   0.82490   0.60800   Biso      1.000     C          -0.044554           
         C26       1.0000    0.64300   0.59610   0.79180   Biso      1.000     C          0.579486  
         C27       1.0000    0.37770   0.83590   0.62250   Biso      1.000     C          0.604096  
         C28       1.0000    0.83970   0.88450   0.55560   Biso      1.000     C          0.725088  
         C29       1.0000    0.76260   0.75860   0.17360   Biso      1.000     C          -0.104544           
         C30       1.0000    0.86610   0.81320   0.22120   Biso      1.000     C          -0.013686           
         C31       1.0000    0.98190   0.78250   0.20280   Biso      1.000     C          -0.098565           
         C32       1.0000    0.99530   0.69830   0.13780   Biso      1.000     C          -0.008357           
         C33       1.0000    0.89140   0.64560   0.09040   Biso      1.000     C          -0.091785           
         C34       1.0000    0.85700   0.90390   0.29180   Biso      1.000     C          0.579486  
         C35       1.0000    0.66030   0.61550   0.05560   Biso      1.000     C          0.725088  
         C36       1.0000    0.12230   0.66410   0.12250   Biso      1.000     C          0.604096  
         Er1       1.0000    0.64303   0.39723   0.89801   Biso      1.000     Er          2.042038  
         Er2       1.0000    0.14303   0.89723   0.60199   Biso      1.000     Er          2.042039  
         Er3       1.0000    0.85697   0.10277   0.39801   Biso      1.000     Er          2.042038  
         Er4       1.0000    0.35697   0.60277   0.10199   Biso      1.000     Er          2.042039  
         H1        1.0000    0.10020   0.40990   0.95360   Biso      1.000     H          0.140251  
         H2        1.0000    0.94800   0.18110   0.76560   Biso      1.000     H          0.133767  
         H3        1.0000    0.39980   0.09010   0.45360   Biso      1.000     H          0.140251  
         H4        1.0000    0.55200   0.31890   0.26560   Biso      1.000     H          0.133766  
         H5        1.0000    0.31570   0.22180   0.81410   Biso      1.000     H          0.114171  
         H6        1.0000    0.89980   0.59010   0.04640   Biso      1.000     H          0.140251  
         H7        1.0000    0.05200   0.81890   0.23440   Biso      1.000     H          0.133767  
         H8        1.0000    0.68430   0.77820   0.18590   Biso      1.000     H          0.114171  
         H9        1.0000    0.60020   0.90990   0.54640   Biso      1.000     H          0.140251  
         H10       1.0000    0.44800   0.68110   0.73440   Biso      1.000     H          0.133766  
         H11       1.0000    0.18430   0.27820   0.31410   Biso      1.000     H          0.114171  
         H12       1.0000    0.81570   0.72180   0.68590   Biso      1.000     H          0.114171  
         O1        1.0000    0.75650   0.94660   0.30100   Biso      1.000     O          -0.630468           
         O2        1.0000    0.13650   0.59060   0.06350   Biso      1.000     O          -0.619048           
         O3        1.0000    0.21210   0.71170   0.17050   Biso      1.000     O          -0.692209           
         O4        1.0000    0.95180   0.94100   0.33760   Biso      1.000     O          -0.630527           
         O5        1.0000    0.54820   0.55900   0.83760   Biso      1.000     O          -0.630527           
         O6        1.0000    0.82940   0.97500   0.51030   Biso      1.000     O          -0.668768           
         O7        1.0000    0.36350   0.90940   0.56350   Biso      1.000     O          -0.619048           
         O8        1.0000    0.28790   0.78830   0.67050   Biso      1.000     O          -0.692209           
         O9        1.0000    0.67060   0.52500   0.01030   Biso      1.000     O          -0.668768           
         O10       1.0000    0.93780   0.83690   0.56290   Biso      1.000     O          -0.736384           
         O11       1.0000    0.56220   0.66310   0.06290   Biso      1.000     O          -0.736384           
         O12       1.0000    0.04820   0.05900   0.66240   Biso      1.000     O          -0.630527           
         O13       1.0000    0.45180   0.44100   0.16240   Biso      1.000     O          -0.630527           
         O14       1.0000    0.71210   0.21170   0.32950   Biso      1.000     O          -0.692209           
         O15       1.0000    0.63650   0.09060   0.43650   Biso      1.000     O          -0.619048           
         O16       1.0000    0.17060   0.02500   0.48970   Biso      1.000     O          -0.668769           
         O17       1.0000    0.06220   0.16310   0.43710   Biso      1.000     O          -0.736384           
         O18       1.0000    0.24350   0.05340   0.69900   Biso      1.000     O          -0.630468           
         O19       1.0000    0.78790   0.28830   0.82950   Biso      1.000     O          -0.692209           
         O20       1.0000    0.86350   0.40940   0.93650   Biso      1.000     O          -0.619048           
         O21       1.0000    0.32940   0.47500   0.98970   Biso      1.000     O          -0.668768           
         O22       1.0000    0.43780   0.33690   0.93710   Biso      1.000     O          -0.736384           
         O23       1.0000    0.25650   0.44660   0.19900   Biso      1.000     O          -0.630469           
         O24       1.0000    0.74350   0.55340   0.80100   Biso      1.000     O          -0.630468 