
##########################################################################
#               Crystallographic Information Format file
#               Produced by PyCifRW module
#
#  This is a CIF file.  CIF has been adopted by the International
#  Union of Crystallography as the standard for data archiving and
#  transmission.
#
#  For information on this file format, follow the CIF links at
#  http://www.iucr.org
##########################################################################

data_image0

_cell_length_a                          10.782
_cell_length_b                          10.881
_cell_length_c                          15.51
_cell_angle_alpha                       90
_cell_angle_beta                        90
_cell_angle_gamma                       100.26
_symmetry_space_group_name_H-M          'P 1'
_symmetry_int_tables_number             1
loop_
  _symmetry_equiv_pos_as_xyz
         'x, y, z' 
loop_
  _atom_site_label
  _atom_site_occupancy
  _atom_site_fract_x
  _atom_site_fract_y
  _atom_site_fract_z
  _atom_site_thermal_displace_type
  _atom_site_B_iso_or_equiv
  _atom_site_type_symbol
  _atom_site_charge
         C1        1.0000    0.36400   0.81030   0.22190   Biso      1.000     C          -0.014019           
         C2        1.0000    0.86400   0.31030   0.27810   Biso      1.000     C          -0.014019           
         C3        1.0000    0.75970   0.25690   0.32570   Biso      1.000     C          -0.110214           
         C4        1.0000    0.89010   0.14350   0.41000   Biso      1.000     C          -0.093271           
         C5        1.0000    0.85550   0.40220   0.20760   Biso      1.000     C          0.547409  
         C6        1.0000    0.65800   0.11450   0.44300   Biso      1.000     C          0.640159  
         C7        1.0000    0.62140   0.66380   0.12240   Biso      1.000     C          0.560623  
         C8        1.0000    0.49480   0.69710   0.13780   Biso      1.000     C          -0.013751           
         C9        1.0000    0.48170   0.78020   0.20320   Biso      1.000     C          -0.118202           
         C10       1.0000    0.25970   0.75690   0.17430   Biso      1.000     C          -0.110214           
         C11       1.0000    0.27190   0.67310   0.10830   Biso      1.000     C          -0.029053           
         C12       1.0000    0.98170   0.28020   0.29680   Biso      1.000     C          -0.11820599999999999          
         C13       1.0000    0.39010   0.64350   0.09000   Biso      1.000     C          -0.093271           
         C14       1.0000    0.15800   0.61450   0.05700   Biso      1.000     C          0.640162  
         C15       1.0000    0.87860   0.83620   0.62240   Biso      1.000     C          0.5606300000000001  
         C16       1.0000    0.00520   0.80290   0.63780   Biso      1.000     C          -0.01375  
         C17       1.0000    0.01830   0.71980   0.70320   Biso      1.000     C          -0.118203           
         C18       1.0000    0.13600   0.68970   0.72190   Biso      1.000     C          -0.01402  
         C19       1.0000    0.24030   0.74310   0.67430   Biso      1.000     C          -0.110213           
         C20       1.0000    0.22810   0.82690   0.60830   Biso      1.000     C          -0.029054000000000003         
         C21       1.0000    0.10990   0.85650   0.59000   Biso      1.000     C          -0.093271           
         C22       1.0000    0.14450   0.59780   0.79240   Biso      1.000     C          0.5474100000000001  
         C23       1.0000    0.34200   0.88550   0.55700   Biso      1.000     C          0.640161  
         C24       1.0000    0.35550   0.90220   0.29240   Biso      1.000     C          0.547409  
         C25       1.0000    0.99480   0.19710   0.36220   Biso      1.000     C          -0.013748           
         C26       1.0000    0.77190   0.17310   0.39170   Biso      1.000     C          -0.029051999999999998         
         C27       1.0000    0.84200   0.38550   0.94300   Biso      1.000     C          0.6401640000000001  
         C28       1.0000    0.64450   0.09780   0.70760   Biso      1.000     C          0.547415  
         C29       1.0000    0.60990   0.35650   0.91000   Biso      1.000     C          -0.09327  
         C30       1.0000    0.72810   0.32690   0.89170   Biso      1.000     C          -0.029053           
         C31       1.0000    0.74030   0.24310   0.82570   Biso      1.000     C          -0.11021500000000001          
         C32       1.0000    0.63600   0.18970   0.77810   Biso      1.000     C          -0.014019           
         C33       1.0000    0.51830   0.21980   0.79680   Biso      1.000     C          -0.11820599999999999          
         C34       1.0000    0.50520   0.30290   0.86220   Biso      1.000     C          -0.013748           
         C35       1.0000    0.37860   0.33620   0.87760   Biso      1.000     C          0.56062   
         C36       1.0000    0.12140   0.16380   0.37760   Biso      1.000     C          0.5606140000000001  
         H1        1.0000    0.44820   0.18350   0.76500   Biso      1.000     H          0.14793800000000001           
         H2        1.0000    0.81870   0.22290   0.81360   Biso      1.000     H          0.12578599999999998           
         H3        1.0000    0.60140   0.41220   0.95420   Biso      1.000     H          0.134659  
         H4        1.0000    0.05180   0.31650   0.26500   Biso      1.000     H          0.14793900000000001           
         H5        1.0000    0.68130   0.27710   0.31360   Biso      1.000     H          0.12578699999999998           
         H6        1.0000    0.55180   0.81650   0.23500   Biso      1.000     H          0.14793699999999999           
         H7        1.0000    0.89860   0.08780   0.45420   Biso      1.000     H          0.134659  
         H8        1.0000    0.39860   0.58780   0.04580   Biso      1.000     H          0.134659  
         H9        1.0000    0.94820   0.68350   0.73500   Biso      1.000     H          0.14793800000000001           
         H10       1.0000    0.31870   0.72290   0.68640   Biso      1.000     H          0.12578599999999998           
         H11       1.0000    0.10140   0.91220   0.54580   Biso      1.000     H          0.13466   
         H12       1.0000    0.18130   0.77710   0.18640   Biso      1.000     H          0.12578699999999998           
         O1        1.0000    0.56040   0.16180   0.43680   Biso      1.000     O          -0.568956           
         O2        1.0000    0.71170   0.70970   0.17010   Biso      1.000     O          -0.539661           
         O3        1.0000    0.63600   0.58820   0.06320   Biso      1.000     O          -0.47163299999999997          
         O4        1.0000    0.25470   0.94500   0.30290   Biso      1.000     O          -0.5178159999999999           
         O5        1.0000    0.45000   0.93890   0.33860   Biso      1.000     O          -0.49694399999999994          
         O6        1.0000    0.05000   0.56110   0.83860   Biso      1.000     O          -0.496946           
         O7        1.0000    0.06040   0.66180   0.06320   Biso      1.000     O          -0.568956           
         O8        1.0000    0.24530   0.55500   0.80290   Biso      1.000     O          -0.5178159999999999           
         O9        1.0000    0.86400   0.91180   0.56320   Biso      1.000     O          -0.47163999999999995          
         O10       1.0000    0.66910   0.02280   0.48890   Biso      1.000     O          -0.5203720000000001           
         O11       1.0000    0.78830   0.79030   0.67010   Biso      1.000     O          -0.539666           
         O12       1.0000    0.16910   0.52280   0.01110   Biso      1.000     O          -0.520374           
         O13       1.0000    0.95000   0.43890   0.16140   Biso      1.000     O          -0.49694399999999994          
         O14       1.0000    0.43960   0.83820   0.56320   Biso      1.000     O          -0.568951           
         O15       1.0000    0.13600   0.08820   0.43680   Biso      1.000     O          -0.47162600000000005          
         O16       1.0000    0.21170   0.20970   0.32990   Biso      1.000     O          -0.539658           
         O17       1.0000    0.93960   0.33820   0.93680   Biso      1.000     O          -0.568955           
         O18       1.0000    0.83090   0.47720   0.98890   Biso      1.000     O          -0.520378           
         O19       1.0000    0.55000   0.06110   0.66140   Biso      1.000     O          -0.496947           
         O20       1.0000    0.74530   0.05500   0.69710   Biso      1.000     O          -0.517818           
         O21       1.0000    0.36400   0.41180   0.93680   Biso      1.000     O          -0.471634           
         O22       1.0000    0.28830   0.29030   0.82990   Biso      1.000     O          -0.539662           
         O23       1.0000    0.33090   0.97720   0.51110   Biso      1.000     O          -0.5203770000000001           
         O24       1.0000    0.75470   0.44500   0.19710   Biso      1.000     O          -0.517817           
         Yb1       1.0000    0.64397   0.89856   0.60200   Biso      1.000     Yb          1.3373190000000001  
         Yb2       1.0000    0.85603   0.60144   0.10200   Biso      1.000     Yb          1.337318  
         Yb3       1.0000    0.35603   0.10144   0.39800   Biso      1.000     Yb          1.337321  
         Yb4       1.0000    0.14397   0.39856   0.89800   Biso      1.000     Yb          1.337321 