
##########################################################################
#               Crystallographic Information Format file
#               Produced by PyCifRW module
#
#  This is a CIF file.  CIF has been adopted by the International
#  Union of Crystallography as the standard for data archiving and
#  transmission.
#
#  For information on this file format, follow the CIF links at
#  http://www.iucr.org
##########################################################################

data_image0

_cell_length_a                          10.8388
_cell_length_b                          10.9421
_cell_length_c                          15.5918
_cell_angle_alpha                       90
_cell_angle_beta                        90
_cell_angle_gamma                       100.513
_symmetry_space_group_name_H-M          'P 1'
_symmetry_int_tables_number             1
loop_
  _symmetry_equiv_pos_as_xyz
         'x, y, z' 
loop_
  _atom_site_label
  _atom_site_occupancy
  _atom_site_fract_x
  _atom_site_fract_y
  _atom_site_fract_z
  _atom_site_thermal_displace_type
  _atom_site_B_iso_or_equiv
  _atom_site_type_symbol
  _atom_site_charge
         C1        1.0000    0.27320   0.67560   0.10810   Biso      1.000     C          -0.049441000000000006         
         C2        1.0000    0.77320   0.17560   0.39190   Biso      1.000     C          -0.049441000000000006         
         C3        1.0000    0.89090   0.14530   0.40950   Biso      1.000     C          -0.091043           
         C4        1.0000    0.98160   0.28220   0.29810   Biso      1.000     C          -0.113298           
         C5        1.0000    0.86580   0.31270   0.27900   Biso      1.000     C          -0.01567  
         C6        1.0000    0.76220   0.25880   0.32680   Biso      1.000     C          -0.116255           
         C7        1.0000    0.15990   0.61580   0.05620   Biso      1.000     C          0.697929  
         C8        1.0000    0.62170   0.66420   0.12180   Biso      1.000     C          0.598857  
         C9        1.0000    0.35630   0.90400   0.29090   Biso      1.000     C          0.582156  
         C10       1.0000    0.39090   0.64530   0.09050   Biso      1.000     C          -0.091043           
         C11       1.0000    0.49610   0.69940   0.13740   Biso      1.000     C          -0.015509           
         C12       1.0000    0.85630   0.40400   0.20910   Biso      1.000     C          0.5821569999999999  
         C13       1.0000    0.48160   0.78220   0.20190   Biso      1.000     C          -0.11329700000000001          
         C14       1.0000    0.26220   0.75880   0.17320   Biso      1.000     C          -0.116256           
         C15       1.0000    0.34010   0.88420   0.55620   Biso      1.000     C          0.697929  
         C16       1.0000    0.87830   0.83580   0.62180   Biso      1.000     C          0.598857  
         C17       1.0000    0.14370   0.59600   0.79090   Biso      1.000     C          0.582156  
         C18       1.0000    0.22680   0.82440   0.60810   Biso      1.000     C          -0.049441000000000006         
         C19       1.0000    0.10910   0.85470   0.59050   Biso      1.000     C          -0.091043           
         C20       1.0000    0.00390   0.80060   0.63740   Biso      1.000     C          -0.01551  
         C21       1.0000    0.01840   0.71780   0.70190   Biso      1.000     C          -0.11329600000000001          
         C22       1.0000    0.13420   0.68730   0.72100   Biso      1.000     C          -0.01567  
         C23       1.0000    0.23780   0.74120   0.67320   Biso      1.000     C          -0.116255           
         C24       1.0000    0.36580   0.81270   0.22100   Biso      1.000     C          -0.015669           
         C25       1.0000    0.12170   0.16420   0.37820   Biso      1.000     C          0.598857  
         C26       1.0000    0.99610   0.19940   0.36260   Biso      1.000     C          -0.015508000000000001         
         C27       1.0000    0.73780   0.24120   0.82680   Biso      1.000     C          -0.11625899999999999          
         C28       1.0000    0.63420   0.18730   0.77900   Biso      1.000     C          -0.01567  
         C29       1.0000    0.51840   0.21780   0.79810   Biso      1.000     C          -0.11329600000000001          
         C30       1.0000    0.50390   0.30060   0.86260   Biso      1.000     C          -0.015508000000000001         
         C31       1.0000    0.60910   0.35470   0.90950   Biso      1.000     C          -0.091043           
         C32       1.0000    0.72680   0.32440   0.89190   Biso      1.000     C          -0.049438           
         C33       1.0000    0.64370   0.09600   0.70910   Biso      1.000     C          0.5821569999999999  
         C34       1.0000    0.37830   0.33580   0.87820   Biso      1.000     C          0.598857  
         C35       1.0000    0.84010   0.38420   0.94380   Biso      1.000     C          0.697929  
         C36       1.0000    0.65990   0.11580   0.44380   Biso      1.000     C          0.697929  
         H1        1.0000    0.60120   0.41120   0.95280   Biso      1.000     H          0.13595   
         H2        1.0000    0.44850   0.18130   0.76650   Biso      1.000     H          0.133471  
         H3        1.0000    0.81580   0.22120   0.81490   Biso      1.000     H          0.117698  
         H4        1.0000    0.89880   0.08880   0.45280   Biso      1.000     H          0.13595   
         H5        1.0000    0.05150   0.31870   0.26650   Biso      1.000     H          0.133472  
         H6        1.0000    0.39880   0.58880   0.04720   Biso      1.000     H          0.13595   
         H7        1.0000    0.68420   0.27880   0.31490   Biso      1.000     H          0.117697  
         H8        1.0000    0.18420   0.77880   0.18510   Biso      1.000     H          0.117698  
         H9        1.0000    0.10120   0.91120   0.54720   Biso      1.000     H          0.13595   
         H10       1.0000    0.94850   0.68130   0.73350   Biso      1.000     H          0.133471  
         H11       1.0000    0.31580   0.72120   0.68510   Biso      1.000     H          0.117697  
         H12       1.0000    0.55150   0.81870   0.23350   Biso      1.000     H          0.133471  
         O1        1.0000    0.75670   0.44550   0.19912   Biso      1.000     O          -0.595968           
         O2        1.0000    0.06260   0.66210   0.06292   Biso      1.000     O          -0.659369           
         O3        1.0000    0.17120   0.52590   0.01004   Biso      1.000     O          -0.618592           
         O4        1.0000    0.63580   0.59050   0.06373   Biso      1.000     O          -0.579926           
         O5        1.0000    0.71150   0.71230   0.16988   Biso      1.000     O          -0.645451           
         O6        1.0000    0.78850   0.78770   0.66988   Biso      1.000     O          -0.645451           
         O7        1.0000    0.25670   0.94550   0.30088   Biso      1.000     O          -0.595968           
         O8        1.0000    0.86420   0.90950   0.56373   Biso      1.000     O          -0.579926           
         O9        1.0000    0.32880   0.97410   0.51004   Biso      1.000     O          -0.618592           
         O10       1.0000    0.95060   0.44030   0.16280   Biso      1.000     O          -0.603735           
         O11       1.0000    0.43740   0.83790   0.56292   Biso      1.000     O          -0.659369           
         O12       1.0000    0.45060   0.94030   0.33720   Biso      1.000     O          -0.603735           
         O13       1.0000    0.21150   0.21230   0.33012   Biso      1.000     O          -0.645451           
         O14       1.0000    0.24330   0.55450   0.80088   Biso      1.000     O          -0.595968           
         O15       1.0000    0.67120   0.02590   0.48996   Biso      1.000     O          -0.618592           
         O16       1.0000    0.56260   0.16210   0.43708   Biso      1.000     O          -0.659369           
         O17       1.0000    0.74330   0.05450   0.69912   Biso      1.000     O          -0.595968           
         O18       1.0000    0.54940   0.05970   0.66280   Biso      1.000     O          -0.603735           
         O19       1.0000    0.28850   0.28770   0.83012   Biso      1.000     O          -0.645451           
         O20       1.0000    0.36420   0.40950   0.93627   Biso      1.000     O          -0.579926           
         O21       1.0000    0.82880   0.47410   0.98996   Biso      1.000     O          -0.618592           
         O22       1.0000    0.93740   0.33790   0.93708   Biso      1.000     O          -0.659369           
         O23       1.0000    0.04940   0.55970   0.83720   Biso      1.000     O          -0.603735           
         O24       1.0000    0.13580   0.09050   0.43627   Biso      1.000     O          -0.579926           
         Y1        1.0000    0.64338   0.89735   0.60209   Biso      1.000     Y          1.838195  
         Y2        1.0000    0.85662   0.60265   0.10209   Biso      1.000     Y          1.838195  
         Y3        1.0000    0.35662   0.10265   0.39791   Biso      1.000     Y          1.838195  
         Y4        1.0000    0.14338   0.39735   0.89791   Biso      1.000     Y          1.838195 