
##########################################################################
#               Crystallographic Information Format file
#               Produced by PyCifRW module
#
#  This is a CIF file.  CIF has been adopted by the International
#  Union of Crystallography as the standard for data archiving and
#  transmission.
#
#  For information on this file format, follow the CIF links at
#  http://www.iucr.org
##########################################################################

data_image0

_cell_length_a                          10.3627
_cell_length_b                          10.3627
_cell_length_c                          14.332
_cell_angle_alpha                       90
_cell_angle_beta                        90
_cell_angle_gamma                       90
_symmetry_space_group_name_H-M          'P 1'
_symmetry_int_tables_number             1
loop_
  _symmetry_equiv_pos_as_xyz
         'x, y, z' 
loop_
  _atom_site_label
  _atom_site_occupancy
  _atom_site_fract_x
  _atom_site_fract_y
  _atom_site_fract_z
  _atom_site_thermal_displace_type
  _atom_site_B_iso_or_equiv
  _atom_site_type_symbol
  _atom_site_charge
         C1        1.0000    0.07840   0.80690   0.83530   Biso      1.000     C          0.615069  
         C2        1.0000    0.73390   0.04090   0.82820   Biso      1.000     C          -0.019487           
         C3        1.0000    0.59930   0.03700   0.82840   Biso      1.000     C          -0.106443           
         C4        1.0000    0.07840   0.19310   0.66470   Biso      1.000     C          0.616007  
         C5        1.0000    0.04090   0.26610   0.57820   Biso      1.000     C          -0.017648           
         C6        1.0000    0.03700   0.40070   0.57840   Biso      1.000     C          -0.107707           
         C7        1.0000    0.92160   0.80690   0.16470   Biso      1.000     C          0.6152    
         C8        1.0000    0.80690   0.07840   0.91470   Biso      1.000     C          0.615075  
         C9        1.0000    0.95910   0.73390   0.07820   Biso      1.000     C          -0.019915           
         C10       1.0000    0.80690   0.92160   0.58530   Biso      1.000     C          0.615206  
         C11       1.0000    0.73390   0.95910   0.67180   Biso      1.000     C          -0.019917           
         C12       1.0000    0.59930   0.96300   0.67160   Biso      1.000     C          -0.107102           
         C13       1.0000    0.19310   0.07840   0.08530   Biso      1.000     C          0.616007  
         C14       1.0000    0.26610   0.04090   0.17180   Biso      1.000     C          -0.017649           
         C15       1.0000    0.40070   0.03700   0.17160   Biso      1.000     C          -0.107708           
         C16       1.0000    0.96300   0.59930   0.07840   Biso      1.000     C          -0.1071   
         C17       1.0000    0.40070   0.96300   0.32840   Biso      1.000     C          -0.108614           
         C18       1.0000    0.26610   0.95910   0.32820   Biso      1.000     C          -0.018907           
         C19       1.0000    0.19310   0.92160   0.41470   Biso      1.000     C          0.615948  
         C20       1.0000    0.00000   0.79850   0.00000   Biso      1.000     C          -0.11369  
         C21       1.0000    0.00000   0.38490   0.00000   Biso      1.000     C          0.642683  
         C22       1.0000    0.00000   0.53130   0.00000   Biso      1.000     C          -0.022033           
         C23       1.0000    0.00000   0.20150   0.50000   Biso      1.000     C          -0.115983           
         C24       1.0000    0.00000   0.61510   0.50000   Biso      1.000     C          0.645478  
         C25       1.0000    0.00000   0.46870   0.50000   Biso      1.000     C          -0.019817           
         C26       1.0000    0.79850   0.00000   0.75000   Biso      1.000     C          -0.113682           
         C27       1.0000    0.38490   0.00000   0.75000   Biso      1.000     C          0.642682  
         C28       1.0000    0.53130   0.00000   0.75000   Biso      1.000     C          -0.022029           
         C29       1.0000    0.20150   0.00000   0.25000   Biso      1.000     C          -0.115976           
         C30       1.0000    0.61510   0.00000   0.25000   Biso      1.000     C          0.64548   
         C31       1.0000    0.46870   0.00000   0.25000   Biso      1.000     C          -0.019818           
         C32       1.0000    0.03700   0.59930   0.92160   Biso      1.000     C          -0.10644  
         C33       1.0000    0.04090   0.73390   0.92180   Biso      1.000     C          -0.019478           
         C34       1.0000    0.96300   0.40070   0.42160   Biso      1.000     C          -0.10861  
         C35       1.0000    0.92160   0.19310   0.33530   Biso      1.000     C          0.615947  
         C36       1.0000    0.95910   0.26610   0.42180   Biso      1.000     C          -0.0189   
         Eu1       1.0000    0.14179   0.85821   0.62500   Biso      1.000     Eu          1.380664  
         Eu2       1.0000    0.85821   0.85821   0.37500   Biso      1.000     Eu          1.381835  
         Eu3       1.0000    0.85821   0.14179   0.12500   Biso      1.000     Eu          1.380662  
         Eu4       1.0000    0.14179   0.14179   0.87500   Biso      1.000     Eu          1.382864  
         H1        1.0000    0.44530   0.94030   0.38220   Biso      1.000     H          0.128395  
         H2        1.0000    0.55470   0.05970   0.88220   Biso      1.000     H          0.128084  
         H3        1.0000    0.94030   0.55470   0.13220   Biso      1.000     H          0.127958  
         H4        1.0000    0.55470   0.94030   0.61780   Biso      1.000     H          0.127959  
         H5        1.0000    0.05970   0.44530   0.63220   Biso      1.000     H          0.128624  
         H6        1.0000    0.94030   0.44530   0.36780   Biso      1.000     H          0.128395  
         H7        1.0000    0.05970   0.55470   0.86780   Biso      1.000     H          0.128083  
         H8        1.0000    0.11180   0.00000   0.25000   Biso      1.000     H          0.115804  
         H9        1.0000    0.88820   0.00000   0.75000   Biso      1.000     H          0.115322  
         H10       1.0000    0.00000   0.11180   0.50000   Biso      1.000     H          0.115805  
         H11       1.0000    0.44530   0.05970   0.11780   Biso      1.000     H          0.128626  
         H12       1.0000    0.00000   0.88820   0.00000   Biso      1.000     H          0.115324  
         O1        1.0000    0.66840   0.06550   0.19110   Biso      1.000     O          -0.545123           
         O2        1.0000    0.33160   0.93450   0.69110   Biso      1.000     O          -0.535315           
         O3        1.0000    0.25340   0.08220   0.01070   Biso      1.000     O          -0.526725           
         O4        1.0000    0.07800   0.09940   0.09140   Biso      1.000     O          -0.550032           
         O5        1.0000    0.09940   0.92200   0.84140   Biso      1.000     O          -0.555069           
         O6        1.0000    0.90060   0.07800   0.34140   Biso      1.000     O          -0.554863           
         O7        1.0000    0.93450   0.66840   0.44110   Biso      1.000     O          -0.536756           
         O8        1.0000    0.08220   0.74660   0.76070   Biso      1.000     O          -0.525798           
         O9        1.0000    0.92200   0.90060   0.59140   Biso      1.000     O          -0.550041           
         O10       1.0000    0.91780   0.25340   0.26070   Biso      1.000     O          -0.527045           
         O11       1.0000    0.74660   0.91780   0.51070   Biso      1.000     O          -0.52882  
         O12       1.0000    0.92200   0.09940   0.90860   Biso      1.000     O          -0.55507  
         O13       1.0000    0.90060   0.92200   0.15860   Biso      1.000     O          -0.550043           
         O14       1.0000    0.91780   0.74660   0.23930   Biso      1.000     O          -0.528817           
         O15       1.0000    0.06550   0.66840   0.55890   Biso      1.000     O          -0.54511  
         O16       1.0000    0.09940   0.07800   0.65860   Biso      1.000     O          -0.55004  
         O17       1.0000    0.08220   0.25340   0.73930   Biso      1.000     O          -0.526725           
         O18       1.0000    0.33160   0.06550   0.80890   Biso      1.000     O          -0.544692           
         O19       1.0000    0.74660   0.08220   0.98930   Biso      1.000     O          -0.525798           
         O20       1.0000    0.66840   0.93450   0.30890   Biso      1.000     O          -0.536754           
         O21       1.0000    0.07800   0.90060   0.40860   Biso      1.000     O          -0.554865           
         O22       1.0000    0.25340   0.91780   0.48930   Biso      1.000     O          -0.527041           
         O23       1.0000    0.93450   0.33160   0.05890   Biso      1.000     O          -0.535308           
         O24       1.0000    0.06550   0.33160   0.94110   Biso      1.000     O          -0.544686 