
##########################################################################
#               Crystallographic Information Format file
#               Produced by PyCifRW module
#
#  This is a CIF file.  CIF has been adopted by the International
#  Union of Crystallography as the standard for data archiving and
#  transmission.
#
#  For information on this file format, follow the CIF links at
#  http://www.iucr.org
##########################################################################

data_image0

_cell_length_a                          8.32
_cell_length_b                          11.375
_cell_length_c                          12.9347
_cell_angle_alpha                       104.395
_cell_angle_beta                        108.761
_cell_angle_gamma                       90
_symmetry_space_group_name_H-M          'P 1'
_symmetry_int_tables_number             1
loop_
  _symmetry_equiv_pos_as_xyz
         'x, y, z' 
loop_
  _atom_site_label
  _atom_site_occupancy
  _atom_site_fract_x
  _atom_site_fract_y
  _atom_site_fract_z
  _atom_site_thermal_displace_type
  _atom_site_B_iso_or_equiv
  _atom_site_type_symbol
  _atom_site_charge
         C1        1.0000    0.32330   0.49470   0.62320   Biso      1.000     C          0.10747000000000001           
         C2        1.0000    0.46930   0.43460   0.65500   Biso      1.000     C          -0.180081           
         C3        1.0000    0.45630   0.31440   0.65980   Biso      1.000     C          0.067004  
         C4        1.0000    0.15070   0.31420   0.60080   Biso      1.000     C          0.120657  
         C5        1.0000    0.16400   0.43450   0.59620   Biso      1.000     C          -0.189604           
         C6        1.0000    0.34050   0.00570   0.39020   Biso      1.000     C          0.63229   
         C7        1.0000    0.28000   0.05230   0.28760   Biso      1.000     C          -0.059567999999999996         
         C8        1.0000    0.39420   0.88270   0.17100   Biso      1.000     C          0.612088  
         C9        1.0000    0.31600   0.00130   0.19240   Biso      1.000     C          -0.138037           
         C10       1.0000    0.17640   0.15330   0.10220   Biso      1.000     C          -0.198694           
         C11       1.0000    0.15190   0.21030   0.20560   Biso      1.000     C          -0.097901           
         C12       1.0000    0.20490   0.16360   0.29560   Biso      1.000     C          -0.147201           
         C13       1.0000    0.21830   0.78250   0.53560   Biso      1.000     C          0.097912  
         C14       1.0000    0.21760   0.66550   0.53920   Biso      1.000     C          -0.201945           
         C15       1.0000    0.32060   0.62930   0.63180   Biso      1.000     C          0.10943   
         C16       1.0000    0.25480   0.04920   0.09640   Biso      1.000     C          0.23246599999999998           
         C17       1.0000    0.95030   0.99430   0.60980   Biso      1.000     C          0.6329520000000001  
         C18       1.0000    0.99240   0.94770   0.71240   Biso      1.000     C          -0.061530999999999995         
         C19       1.0000    0.12360   0.99870   0.80760   Biso      1.000     C          -0.13841199999999998          
         C20       1.0000    0.22320   0.11730   0.82900   Biso      1.000     C          0.611509  
         C21       1.0000    0.81430   0.56540   0.34500   Biso      1.000     C          -0.179446           
         C22       1.0000    0.79650   0.68560   0.34020   Biso      1.000     C          0.068025  
         C23       1.0000    0.54990   0.68580   0.39920   Biso      1.000     C          0.122885  
         C24       1.0000    0.56780   0.56550   0.40380   Biso      1.000     C          -0.191115           
         C25       1.0000    0.70010   0.50530   0.37680   Biso      1.000     C          0.107651  
         C26       1.0000    0.70550   0.15850   0.28340   Biso      1.000     C          0.104775  
         C27       1.0000    0.69870   0.28110   0.27880   Biso      1.000     C          -0.166679           
         C28       1.0000    0.68880   0.37070   0.36820   Biso      1.000     C          0.10899400000000001           
         C29       1.0000    0.67840   0.33450   0.46080   Biso      1.000     C          -0.201766           
         C30       1.0000    0.68270   0.21750   0.46440   Biso      1.000     C          0.09804   
         C31       1.0000    0.90930   0.83640   0.70440   Biso      1.000     C          -0.14674  
         C32       1.0000    0.94630   0.78970   0.79440   Biso      1.000     C          -0.097298           
         C33       1.0000    0.07420   0.84670   0.89780   Biso      1.000     C          -0.201502           
         C34       1.0000    0.15840   0.95080   0.90360   Biso      1.000     C          0.234709  
         C35       1.0000    0.41990   0.71890   0.72120   Biso      1.000     C          -0.166811           
         C36       1.0000    0.42210   0.84150   0.71660   Biso      1.000     C          0.104545  
         Co1       1.0000    0.32291   0.06344   0.62960   Biso      1.000     Co          0.69593   
         Co2       1.0000    0.69331   0.93656   0.37040   Biso      1.000     Co          0.696574  
         H1        1.0000    0.90280   0.52510   0.32680   Biso      1.000     H          0.12981900000000002           
         H2        1.0000    0.13980   0.18630   0.04040   Biso      1.000     H          0.144766  
         H3        1.0000    0.09770   0.28190   0.21160   Biso      1.000     H          0.097472  
         H4        1.0000    0.19180   0.20510   0.36360   Biso      1.000     H          0.10056699999999999           
         H5        1.0000    0.14660   0.80220   0.47160   Biso      1.000     H          0.101376  
         H6        1.0000    0.48720   0.69890   0.78620   Biso      1.000     H          0.139585  
         H7        1.0000    0.49330   0.90120   0.77760   Biso      1.000     H          0.123153  
         H8        1.0000    0.06620   0.47460   0.57480   Biso      1.000     H          0.125996  
         H9        1.0000    0.04410   0.27390   0.58280   Biso      1.000     H          0.108244  
         H10       1.0000    0.55410   0.27420   0.68100   Biso      1.000     H          0.1155    
         H11       1.0000    0.14580   0.60680   0.47780   Biso      1.000     H          0.11192200000000001           
         H12       1.0000    0.09940   0.81370   0.95960   Biso      1.000     H          0.145403  
         H13       1.0000    0.88610   0.71810   0.78840   Biso      1.000     H          0.098386  
         H14       1.0000    0.82820   0.79490   0.63640   Biso      1.000     H          0.10004600000000001           
         H15       1.0000    0.67500   0.19780   0.52840   Biso      1.000     H          0.10155499999999999           
         H16       1.0000    0.66800   0.39320   0.52220   Biso      1.000     H          0.112081  
         H17       1.0000    0.70100   0.30110   0.21380   Biso      1.000     H          0.139621  
         H18       1.0000    0.71570   0.09880   0.22240   Biso      1.000     H          0.12285399999999999           
         H19       1.0000    0.49140   0.52540   0.42520   Biso      1.000     H          0.126217  
         H20       1.0000    0.46130   0.72610   0.41720   Biso      1.000     H          0.108324  
         H21       1.0000    0.87310   0.72580   0.31900   Biso      1.000     H          0.114848  
         H22       1.0000    0.57600   0.47490   0.67320   Biso      1.000     H          0.12975699999999998           
         N1        1.0000    0.69770   0.12830   0.37900   Biso      1.000     N          -0.200677           
         N2        1.0000    0.66410   0.74580   0.36740   Biso      1.000     N          -0.16717200000000002          
         N3        1.0000    0.29670   0.25420   0.63260   Biso      1.000     N          -0.164444           
         N4        1.0000    0.31870   0.87170   0.62100   Biso      1.000     N          -0.2003   
         O1        1.0000    0.35947   0.11120   0.80254   Biso      1.000     O          -0.594627           
         O2        1.0000    0.26728   0.03480   0.45676   Biso      1.000     O          -0.535729           
         O3        1.0000    0.46459   0.94950   0.40438   Biso      1.000     O          -0.555728           
         O4        1.0000    0.29453   0.79000   0.13646   Biso      1.000     O          -0.52757  
         O5        1.0000    0.55693   0.88880   0.19746   Biso      1.000     O          -0.5954   
         O6        1.0000    0.81052   0.96520   0.54324   Biso      1.000     O          -0.535026           
         O7        1.0000    0.06021   0.05050   0.59562   Biso      1.000     O          -0.5561050000000001           
         O8        1.0000    0.15807   0.21000   0.86354   Biso      1.000     O          -0.527555           
         O9        1.0000    0.29820   0.00000   0.00000   Biso      1.000     O          -0.238734 