
##########################################################################
#               Crystallographic Information Format file
#               Produced by PyCifRW module
#
#  This is a CIF file.  CIF has been adopted by the International
#  Union of Crystallography as the standard for data archiving and
#  transmission.
#
#  For information on this file format, follow the CIF links at
#  http://www.iucr.org
##########################################################################

data_image0

_cell_length_a                          8.5083
_cell_length_b                          15.704
_cell_length_c                          28.452
_cell_angle_alpha                       90
_cell_angle_beta                        90
_cell_angle_gamma                       90
_symmetry_space_group_name_H-M          'P 1'
_symmetry_int_tables_number             1
loop_
  _symmetry_equiv_pos_as_xyz
         'x, y, z' 
loop_
  _atom_site_label
  _atom_site_occupancy
  _atom_site_fract_x
  _atom_site_fract_y
  _atom_site_fract_z
  _atom_site_thermal_displace_type
  _atom_site_B_iso_or_equiv
  _atom_site_type_symbol
  _atom_site_charge
         C1        1.0000    0.83350   0.26670   0.33799   Biso      1.000     C          0.644015  
         C2        1.0000    0.59920   0.01780   0.43478   Biso      1.000     C          -0.09053  
         C3        1.0000    0.45140   0.99620   0.41816   Biso      1.000     C          0.066347  
         C4        1.0000    0.78950   0.30450   0.29204   Biso      1.000     C          -0.080222           
         C5        1.0000    0.70480   0.37950   0.29036   Biso      1.000     C          0.079024  
         C6        1.0000    0.82920   0.60200   0.57604   Biso      1.000     C          0.6630689999999999  
         C7        1.0000    0.82730   0.32360   0.48942   Biso      1.000     C          0.6581640000000001  
         C8        1.0000    0.04690   0.37020   0.54327   Biso      1.000     C          0.083583  
         C9        1.0000    0.89790   0.38600   0.52405   Biso      1.000     C          -0.091959           
         C10       1.0000    0.82430   0.46090   0.53567   Biso      1.000     C          -0.06992899999999999          
         C11       1.0000    0.90080   0.51780   0.56522   Biso      1.000     C          -0.09053  
         C12       1.0000    0.04860   0.49620   0.58184   Biso      1.000     C          0.066347  
         C13       1.0000    0.66650   0.76670   0.83799   Biso      1.000     C          0.644015  
         C14       1.0000    0.71050   0.80450   0.79204   Biso      1.000     C          -0.080222           
         C15       1.0000    0.67570   0.96090   0.46433   Biso      1.000     C          -0.06993200000000001          
         C16       1.0000    0.79520   0.87950   0.79036   Biso      1.000     C          0.079024  
         C17       1.0000    0.45310   0.87020   0.04327   Biso      1.000     C          0.083583  
         C18       1.0000    0.60210   0.88600   0.02405   Biso      1.000     C          -0.091959           
         C19       1.0000    0.67570   0.96090   0.03567   Biso      1.000     C          -0.06992899999999999          
         C20       1.0000    0.59920   0.01780   0.06522   Biso      1.000     C          -0.09053  
         C21       1.0000    0.45140   0.99620   0.08184   Biso      1.000     C          0.066347  
         C22       1.0000    0.83350   0.26670   0.16201   Biso      1.000     C          0.644015  
         C23       1.0000    0.78950   0.30450   0.20796   Biso      1.000     C          -0.080222           
         C24       1.0000    0.70480   0.37950   0.20964   Biso      1.000     C          0.079024  
         C25       1.0000    0.82920   0.60200   0.92396   Biso      1.000     C          0.6630689999999999  
         C26       1.0000    0.82730   0.32360   0.01058   Biso      1.000     C          0.6581640000000001  
         C27       1.0000    0.04690   0.37020   0.95673   Biso      1.000     C          0.083583  
         C28       1.0000    0.89790   0.38600   0.97595   Biso      1.000     C          -0.091959           
         C29       1.0000    0.82430   0.46090   0.96433   Biso      1.000     C          -0.06992899999999999          
         C30       1.0000    0.67080   0.10200   0.07604   Biso      1.000     C          0.6630689999999999  
         C31       1.0000    0.90080   0.51780   0.93478   Biso      1.000     C          -0.09053  
         C32       1.0000    0.60210   0.88600   0.47595   Biso      1.000     C          -0.091956           
         C33       1.0000    0.67270   0.82360   0.51058   Biso      1.000     C          0.6581640000000001  
         C34       1.0000    0.66500   0.76740   0.75000   Biso      1.000     C          -0.05709500000000001          
         C35       1.0000    0.83500   0.26740   0.25000   Biso      1.000     C          -0.057094000000000006         
         C36       1.0000    0.33500   0.23260   0.25000   Biso      1.000     C          -0.057097           
         C37       1.0000    0.16500   0.73260   0.75000   Biso      1.000     C          -0.057097           
         C38       1.0000    0.33350   0.23330   0.16201   Biso      1.000     C          0.644015  
         C39       1.0000    0.28950   0.19550   0.20796   Biso      1.000     C          -0.08022  
         C40       1.0000    0.20480   0.12050   0.20964   Biso      1.000     C          0.079023  
         C41       1.0000    0.32920   0.89800   0.92396   Biso      1.000     C          0.6630689999999999  
         C42       1.0000    0.32730   0.17640   0.01058   Biso      1.000     C          0.6581640000000001  
         C43       1.0000    0.54690   0.12980   0.95673   Biso      1.000     C          0.083583  
         C44       1.0000    0.39790   0.11400   0.97595   Biso      1.000     C          -0.091959           
         C45       1.0000    0.32430   0.03910   0.96433   Biso      1.000     C          -0.06992899999999999          
         C46       1.0000    0.40080   0.98220   0.93478   Biso      1.000     C          -0.09053  
         C47       1.0000    0.45310   0.87020   0.45673   Biso      1.000     C          0.083582  
         C48       1.0000    0.54860   0.00380   0.91816   Biso      1.000     C          0.066347  
         C49       1.0000    0.21050   0.69550   0.79204   Biso      1.000     C          -0.08022  
         C50       1.0000    0.29520   0.62050   0.79036   Biso      1.000     C          0.079023  
         C51       1.0000    0.17080   0.39800   0.07604   Biso      1.000     C          0.6630689999999999  
         C52       1.0000    0.17270   0.67640   0.98942   Biso      1.000     C          0.6581640000000001  
         C53       1.0000    0.95310   0.62980   0.04327   Biso      1.000     C          0.083583  
         C54       1.0000    0.10210   0.61400   0.02405   Biso      1.000     C          -0.091959           
         C55       1.0000    0.17570   0.53910   0.03567   Biso      1.000     C          -0.06992899999999999          
         C56       1.0000    0.09920   0.48220   0.06522   Biso      1.000     C          -0.09053  
         C57       1.0000    0.95140   0.50380   0.08184   Biso      1.000     C          0.066347  
         C58       1.0000    0.66650   0.76670   0.66201   Biso      1.000     C          0.644015  
         C59       1.0000    0.71050   0.80450   0.70796   Biso      1.000     C          -0.08022  
         C60       1.0000    0.79520   0.87950   0.70964   Biso      1.000     C          0.079023  
         C61       1.0000    0.67080   0.10200   0.42396   Biso      1.000     C          0.6630689999999999  
         C62       1.0000    0.16650   0.73330   0.83799   Biso      1.000     C          0.644015  
         C63       1.0000    0.04860   0.49620   0.91816   Biso      1.000     C          0.066347  
         C64       1.0000    0.67270   0.82360   0.98942   Biso      1.000     C          0.6581640000000001  
         C65       1.0000    0.28950   0.19550   0.29204   Biso      1.000     C          -0.08022  
         C66       1.0000    0.33350   0.23330   0.33799   Biso      1.000     C          0.644015  
         C67       1.0000    0.95140   0.50380   0.41816   Biso      1.000     C          0.066346  
         C68       1.0000    0.17570   0.53910   0.46433   Biso      1.000     C          -0.06993200000000001          
         C69       1.0000    0.10210   0.61400   0.47595   Biso      1.000     C          -0.091956           
         C70       1.0000    0.95310   0.62980   0.45673   Biso      1.000     C          0.083582  
         C71       1.0000    0.17270   0.67640   0.51058   Biso      1.000     C          0.6581640000000001  
         C72       1.0000    0.17080   0.39800   0.42396   Biso      1.000     C          0.6630689999999999  
         C73       1.0000    0.29520   0.62050   0.70964   Biso      1.000     C          0.079023  
         C74       1.0000    0.21050   0.69550   0.70796   Biso      1.000     C          -0.08022  
         C75       1.0000    0.09920   0.48220   0.43478   Biso      1.000     C          -0.090529           
         C76       1.0000    0.54860   0.00380   0.58184   Biso      1.000     C          0.066346  
         C77       1.0000    0.40080   0.98220   0.56522   Biso      1.000     C          -0.09053  
         C78       1.0000    0.32430   0.03910   0.53567   Biso      1.000     C          -0.06993200000000001          
         C79       1.0000    0.39790   0.11400   0.52405   Biso      1.000     C          -0.091956           
         C80       1.0000    0.54690   0.12980   0.54327   Biso      1.000     C          0.083582  
         C81       1.0000    0.32730   0.17640   0.48942   Biso      1.000     C          0.6581640000000001  
         C82       1.0000    0.32920   0.89800   0.57604   Biso      1.000     C          0.6630689999999999  
         C83       1.0000    0.16650   0.73330   0.66201   Biso      1.000     C          0.644015  
         C84       1.0000    0.20480   0.12050   0.29036   Biso      1.000     C          0.079023  
         H1        1.0000    0.10130   0.53570   0.60160   Biso      1.000     H          0.092136  
         H2        1.0000    0.82630   0.90450   0.81930   Biso      1.000     H          0.093926  
         H3        1.0000    0.40240   0.81820   0.03530   Biso      1.000     H          0.100277  
         H4        1.0000    0.77730   0.97360   0.02370   Biso      1.000     H          0.12925899999999999           
         H5        1.0000    0.39870   0.03570   0.10160   Biso      1.000     H          0.092136  
         H6        1.0000    0.67370   0.40450   0.18070   Biso      1.000     H          0.093926  
         H7        1.0000    0.09760   0.31820   0.96470   Biso      1.000     H          0.100277  
         H8        1.0000    0.22270   0.02640   0.52370   Biso      1.000     H          0.12925999999999999           
         H9        1.0000    0.17370   0.09550   0.31930   Biso      1.000     H          0.093926  
         H10       1.0000    0.59760   0.18180   0.53530   Biso      1.000     H          0.100277  
         H11       1.0000    0.60130   0.96430   0.60160   Biso      1.000     H          0.092136  
         H12       1.0000    0.32630   0.59550   0.68070   Biso      1.000     H          0.093926  
         H13       1.0000    0.90240   0.68180   0.46470   Biso      1.000     H          0.100277  
         H14       1.0000    0.27730   0.52640   0.47630   Biso      1.000     H          0.12925999999999999           
         H15       1.0000    0.72270   0.47360   0.52370   Biso      1.000     H          0.12925899999999999           
         H16       1.0000    0.89870   0.46430   0.39840   Biso      1.000     H          0.092136  
         H17       1.0000    0.10130   0.53570   0.89840   Biso      1.000     H          0.092136  
         H18       1.0000    0.09760   0.31820   0.53530   Biso      1.000     H          0.100277  
         H19       1.0000    0.72270   0.47360   0.97630   Biso      1.000     H          0.12925899999999999           
         H20       1.0000    0.39870   0.03570   0.39840   Biso      1.000     H          0.092136  
         H21       1.0000    0.60320   0.71710   0.75000   Biso      1.000     H          0.130228  
         H22       1.0000    0.89680   0.21710   0.25000   Biso      1.000     H          0.130228  
         H23       1.0000    0.39680   0.28290   0.25000   Biso      1.000     H          0.130228  
         H24       1.0000    0.10320   0.78290   0.75000   Biso      1.000     H          0.130228  
         H25       1.0000    0.59760   0.18180   0.96470   Biso      1.000     H          0.100277  
         H26       1.0000    0.22270   0.02640   0.97630   Biso      1.000     H          0.12925899999999999           
         H27       1.0000    0.60130   0.96430   0.89840   Biso      1.000     H          0.092136  
         H28       1.0000    0.17370   0.09550   0.18070   Biso      1.000     H          0.093926  
         H29       1.0000    0.67370   0.40450   0.31930   Biso      1.000     H          0.093926  
         H30       1.0000    0.90240   0.68180   0.03530   Biso      1.000     H          0.100277  
         H31       1.0000    0.27730   0.52640   0.02370   Biso      1.000     H          0.12925899999999999           
         H32       1.0000    0.89870   0.46430   0.10160   Biso      1.000     H          0.092136  
         H33       1.0000    0.82630   0.90450   0.68070   Biso      1.000     H          0.093926  
         H34       1.0000    0.40240   0.81820   0.46470   Biso      1.000     H          0.100277  
         H35       1.0000    0.77730   0.97360   0.47630   Biso      1.000     H          0.12925999999999999           
         H36       1.0000    0.32630   0.59550   0.81930   Biso      1.000     H          0.093926  
         N1        1.0000    0.12110   0.42320   0.57175   Biso      1.000     N          -0.265146           
         N2        1.0000    0.37890   0.92320   0.42825   Biso      1.000     N          -0.265146           
         N3        1.0000    0.87890   0.57680   0.07175   Biso      1.000     N          -0.265146           
         N4        1.0000    0.83680   0.91990   0.75000   Biso      1.000     N          -0.257657           
         N5        1.0000    0.33680   0.58010   0.75000   Biso      1.000     N          -0.257657           
         N6        1.0000    0.16320   0.08010   0.25000   Biso      1.000     N          -0.257657           
         N7        1.0000    0.37890   0.92320   0.07175   Biso      1.000     N          -0.265146           
         N8        1.0000    0.62110   0.07680   0.92825   Biso      1.000     N          -0.265146           
         N9        1.0000    0.66320   0.41990   0.25000   Biso      1.000     N          -0.257657           
         N10       1.0000    0.12110   0.42320   0.92825   Biso      1.000     N          -0.265146           
         N11       1.0000    0.87890   0.57680   0.42825   Biso      1.000     N          -0.265146           
         N12       1.0000    0.62110   0.07680   0.57175   Biso      1.000     N          -0.265146           
         O1        1.0000    0.80860   0.84120   0.97420   Biso      1.000     O          -0.623494           
         O2        1.0000    0.58130   0.15920   0.09174   Biso      1.000     O          -0.6317619999999999           
         O3        1.0000    0.81610   0.11130   0.06847   Biso      1.000     O          -0.635636           
         O4        1.0000    0.93910   0.21030   0.33865   Biso      1.000     O          -0.6114609999999999           
         O5        1.0000    0.77080   0.29230   0.37570   Biso      1.000     O          -0.675665           
         O6        1.0000    0.90700   0.25930   0.47928   Biso      1.000     O          -0.622934           
         O7        1.0000    0.69140   0.34120   0.47420   Biso      1.000     O          -0.623494           
         O8        1.0000    0.91870   0.65920   0.59174   Biso      1.000     O          -0.6317619999999999           
         O9        1.0000    0.68390   0.61130   0.56847   Biso      1.000     O          -0.635636           
         O10       1.0000    0.56090   0.71030   0.66135   Biso      1.000     O          -0.6114609999999999           
         O11       1.0000    0.72920   0.79230   0.62430   Biso      1.000     O          -0.675665           
         O12       1.0000    0.59300   0.75930   0.52072   Biso      1.000     O          -0.622934           
         O13       1.0000    0.80860   0.84120   0.52580   Biso      1.000     O          -0.623494           
         O14       1.0000    0.81610   0.11130   0.43153   Biso      1.000     O          -0.635636           
         O15       1.0000    0.06090   0.78970   0.83865   Biso      1.000     O          -0.6114609999999999           
         O16       1.0000    0.22920   0.70770   0.87570   Biso      1.000     O          -0.675665           
         O17       1.0000    0.09300   0.74070   0.97928   Biso      1.000     O          -0.622934           
         O18       1.0000    0.59300   0.75930   0.97928   Biso      1.000     O          -0.622934           
         O19       1.0000    0.30860   0.65880   0.97420   Biso      1.000     O          -0.623494           
         O20       1.0000    0.08130   0.34080   0.09174   Biso      1.000     O          -0.6317619999999999           
         O21       1.0000    0.31610   0.38870   0.06847   Biso      1.000     O          -0.635636           
         O22       1.0000    0.43910   0.28970   0.16135   Biso      1.000     O          -0.6114609999999999           
         O23       1.0000    0.27080   0.20770   0.12430   Biso      1.000     O          -0.675665           
         O24       1.0000    0.40700   0.24070   0.02072   Biso      1.000     O          -0.622934           
         O25       1.0000    0.19140   0.15880   0.02580   Biso      1.000     O          -0.623494           
         O26       1.0000    0.58130   0.15920   0.40826   Biso      1.000     O          -0.6317619999999999           
         O27       1.0000    0.72920   0.79230   0.87570   Biso      1.000     O          -0.675665           
         O28       1.0000    0.18390   0.88870   0.93153   Biso      1.000     O          -0.635636           
         O29       1.0000    0.68390   0.61130   0.93153   Biso      1.000     O          -0.635636           
         O30       1.0000    0.41870   0.84080   0.90826   Biso      1.000     O          -0.6317619999999999           
         O31       1.0000    0.06090   0.78970   0.66135   Biso      1.000     O          -0.6114609999999999           
         O32       1.0000    0.22920   0.70770   0.62430   Biso      1.000     O          -0.675665           
         O33       1.0000    0.09300   0.74070   0.52072   Biso      1.000     O          -0.622934           
         O34       1.0000    0.30860   0.65880   0.52580   Biso      1.000     O          -0.623494           
         O35       1.0000    0.56090   0.71030   0.83865   Biso      1.000     O          -0.6114609999999999           
         O36       1.0000    0.31610   0.38870   0.43153   Biso      1.000     O          -0.635636           
         O37       1.0000    0.43910   0.28970   0.33865   Biso      1.000     O          -0.6114609999999999           
         O38       1.0000    0.27080   0.20770   0.37570   Biso      1.000     O          -0.675665           
         O39       1.0000    0.08130   0.34080   0.40826   Biso      1.000     O          -0.6317619999999999           
         O40       1.0000    0.19140   0.15880   0.47420   Biso      1.000     O          -0.623494           
         O41       1.0000    0.41870   0.84080   0.59174   Biso      1.000     O          -0.6317619999999999           
         O42       1.0000    0.18390   0.88870   0.56847   Biso      1.000     O          -0.635636           
         O43       1.0000    0.93910   0.21030   0.16135   Biso      1.000     O          -0.6114609999999999           
         O44       1.0000    0.77080   0.29230   0.12430   Biso      1.000     O          -0.675665           
         O45       1.0000    0.90700   0.25930   0.02072   Biso      1.000     O          -0.622934           
         O46       1.0000    0.69140   0.34120   0.02580   Biso      1.000     O          -0.623494           
         O47       1.0000    0.91870   0.65920   0.90826   Biso      1.000     O          -0.6317619999999999           
         O48       1.0000    0.40700   0.24070   0.47928   Biso      1.000     O          -0.622934           
         Y1        1.0000    0.52622   0.30142   0.41514   Biso      1.000     Y          1.881199  
         Y2        1.0000    0.02622   0.19858   0.08486   Biso      1.000     Y          1.881199  
         Y3        1.0000    0.47378   0.69858   0.91514   Biso      1.000     Y          1.881199  
         Y4        1.0000    0.52622   0.30142   0.08486   Biso      1.000     Y          1.881199  
         Y5        1.0000    0.47378   0.69858   0.58486   Biso      1.000     Y          1.881199  
         Y6        1.0000    0.97378   0.80142   0.91514   Biso      1.000     Y          1.881199  
         Y7        1.0000    0.02622   0.19858   0.41514   Biso      1.000     Y          1.881199  
         Y8        1.0000    0.97378   0.80142   0.58486   Biso      1.000     Y          1.881199 