
##########################################################################
#               Crystallographic Information Format file
#               Produced by PyCifRW module
#
#  This is a CIF file.  CIF has been adopted by the International
#  Union of Crystallography as the standard for data archiving and
#  transmission.
#
#  For information on this file format, follow the CIF links at
#  http://www.iucr.org
##########################################################################

data_image0

_cell_length_a                          8.438
_cell_length_b                          15.934
_cell_length_c                          27.795
_cell_angle_alpha                       90
_cell_angle_beta                        90
_cell_angle_gamma                       90
_symmetry_space_group_name_H-M          'P 1'
_symmetry_int_tables_number             1
loop_
  _symmetry_equiv_pos_as_xyz
         'x, y, z' 
loop_
  _atom_site_label
  _atom_site_occupancy
  _atom_site_fract_x
  _atom_site_fract_y
  _atom_site_fract_z
  _atom_site_thermal_displace_type
  _atom_site_B_iso_or_equiv
  _atom_site_type_symbol
  _atom_site_charge
         C1        1.0000    0.66900   0.23420   0.16020   Biso      1.000     C          0.658107  
         C2        1.0000    0.16690   0.60590   0.92590   Biso      1.000     C          0.686344  
         C3        1.0000    0.17210   0.32420   0.00520   Biso      1.000     C          0.6883199999999999  
         C4        1.0000    0.95200   0.49850   0.91410   Biso      1.000     C          0.069137  
         C5        1.0000    0.09700   0.52060   0.93400   Biso      1.000     C          -0.08693300000000001          
         C6        1.0000    0.17280   0.46240   0.96340   Biso      1.000     C          -0.06731799999999999          
         C7        1.0000    0.10000   0.38620   0.97240   Biso      1.000     C          -0.087424           
         C8        1.0000    0.95430   0.36960   0.95030   Biso      1.000     C          0.085147  
         C9        1.0000    0.33100   0.76580   0.83980   Biso      1.000     C          0.658108  
         C10       1.0000    0.28960   0.80320   0.79280   Biso      1.000     C          -0.072243           
         C11       1.0000    0.21160   0.88020   0.79120   Biso      1.000     C          0.08576900000000001           
         C12       1.0000    0.33310   0.10590   0.07410   Biso      1.000     C          0.686343  
         C13       1.0000    0.32790   0.82420   0.99480   Biso      1.000     C          0.6883199999999999  
         C14       1.0000    0.54800   0.99850   0.08590   Biso      1.000     C          0.069137  
         C15       1.0000    0.40300   0.02060   0.06600   Biso      1.000     C          -0.08693300000000001          
         C16       1.0000    0.32720   0.96240   0.03660   Biso      1.000     C          -0.06731799999999999          
         C17       1.0000    0.40000   0.88620   0.02760   Biso      1.000     C          -0.087424           
         C18       1.0000    0.54570   0.86960   0.04970   Biso      1.000     C          0.085147  
         C19       1.0000    0.28840   0.38020   0.20880   Biso      1.000     C          0.085768  
         C20       1.0000    0.45430   0.13040   0.95030   Biso      1.000     C          0.085147  
         C21       1.0000    0.21040   0.30320   0.20720   Biso      1.000     C          -0.072241           
         C22       1.0000    0.45430   0.13040   0.54970   Biso      1.000     C          0.085147  
         C23       1.0000    0.71160   0.61980   0.70880   Biso      1.000     C          0.085767  
         C24       1.0000    0.83310   0.39410   0.42590   Biso      1.000     C          0.686343  
         C25       1.0000    0.82790   0.67580   0.50520   Biso      1.000     C          0.6883199999999999  
         C26       1.0000    0.04800   0.50150   0.41410   Biso      1.000     C          0.069137  
         C27       1.0000    0.90300   0.47940   0.43400   Biso      1.000     C          -0.08693300000000001          
         C28       1.0000    0.82720   0.53760   0.46340   Biso      1.000     C          -0.06731799999999999          
         C29       1.0000    0.90000   0.61380   0.47240   Biso      1.000     C          -0.087424           
         C30       1.0000    0.04570   0.63040   0.45030   Biso      1.000     C          0.085147  
         C31       1.0000    0.66900   0.23420   0.33980   Biso      1.000     C          0.658108  
         C32       1.0000    0.71040   0.19680   0.29280   Biso      1.000     C          -0.072242           
         C33       1.0000    0.78840   0.11980   0.29120   Biso      1.000     C          0.08576900000000001           
         C34       1.0000    0.66690   0.89410   0.57410   Biso      1.000     C          0.686344  
         C35       1.0000    0.67210   0.17580   0.49480   Biso      1.000     C          0.6883199999999999  
         C36       1.0000    0.45200   0.00150   0.58590   Biso      1.000     C          0.069137  
         C37       1.0000    0.59700   0.97940   0.56600   Biso      1.000     C          -0.08693300000000001          
         C38       1.0000    0.67280   0.03760   0.53660   Biso      1.000     C          -0.06731799999999999          
         C39       1.0000    0.60000   0.11380   0.52760   Biso      1.000     C          -0.087424           
         C40       1.0000    0.16900   0.26580   0.16020   Biso      1.000     C          0.658108  
         C41       1.0000    0.60000   0.11380   0.97240   Biso      1.000     C          -0.087426           
         C42       1.0000    0.67280   0.03760   0.96340   Biso      1.000     C          -0.067316           
         C43       1.0000    0.59700   0.97940   0.93400   Biso      1.000     C          -0.086935           
         C44       1.0000    0.21160   0.88020   0.70880   Biso      1.000     C          0.085768  
         C45       1.0000    0.28960   0.80320   0.70720   Biso      1.000     C          -0.072241           
         C46       1.0000    0.33100   0.76580   0.66020   Biso      1.000     C          0.658108  
         C47       1.0000    0.95430   0.36960   0.54970   Biso      1.000     C          0.085147  
         C48       1.0000    0.10000   0.38620   0.52760   Biso      1.000     C          -0.087425           
         C49       1.0000    0.17280   0.46240   0.53660   Biso      1.000     C          -0.067316           
         C50       1.0000    0.09700   0.52060   0.56600   Biso      1.000     C          -0.086935           
         C51       1.0000    0.95200   0.49850   0.58590   Biso      1.000     C          0.06913899999999999           
         C52       1.0000    0.17210   0.32420   0.49480   Biso      1.000     C          0.6883199999999999  
         C53       1.0000    0.16690   0.60590   0.57410   Biso      1.000     C          0.686344  
         C54       1.0000    0.28840   0.38020   0.29120   Biso      1.000     C          0.085768  
         C55       1.0000    0.21040   0.30320   0.29280   Biso      1.000     C          -0.072241           
         C56       1.0000    0.16900   0.26580   0.33980   Biso      1.000     C          0.658108  
         C57       1.0000    0.33110   0.76680   0.75000   Biso      1.000     C          -0.053237           
         C58       1.0000    0.16890   0.26680   0.25000   Biso      1.000     C          -0.053237           
         C59       1.0000    0.66890   0.23320   0.25000   Biso      1.000     C          -0.05324400000000001          
         C60       1.0000    0.83110   0.73320   0.75000   Biso      1.000     C          -0.053252           
         C61       1.0000    0.33310   0.10590   0.42590   Biso      1.000     C          0.686344  
         C62       1.0000    0.32790   0.82420   0.50520   Biso      1.000     C          0.6883199999999999  
         C63       1.0000    0.54800   0.99850   0.41410   Biso      1.000     C          0.069137  
         C64       1.0000    0.40300   0.02060   0.43400   Biso      1.000     C          -0.086934           
         C65       1.0000    0.45200   0.00150   0.91410   Biso      1.000     C          0.06913899999999999           
         C66       1.0000    0.67210   0.17580   0.00520   Biso      1.000     C          0.6883199999999999  
         C67       1.0000    0.66690   0.89410   0.92590   Biso      1.000     C          0.686344  
         C68       1.0000    0.78840   0.11980   0.20880   Biso      1.000     C          0.085767  
         C69       1.0000    0.71040   0.19680   0.20720   Biso      1.000     C          -0.072234           
         C70       1.0000    0.04570   0.63040   0.04970   Biso      1.000     C          0.085147  
         C71       1.0000    0.90000   0.61380   0.02760   Biso      1.000     C          -0.087425           
         C72       1.0000    0.82720   0.53760   0.03660   Biso      1.000     C          -0.067316           
         C73       1.0000    0.78960   0.69680   0.70720   Biso      1.000     C          -0.072233           
         C74       1.0000    0.90300   0.47940   0.06600   Biso      1.000     C          -0.086935           
         C75       1.0000    0.82790   0.67580   0.99480   Biso      1.000     C          0.6883199999999999  
         C76       1.0000    0.83310   0.39410   0.07410   Biso      1.000     C          0.686344  
         C77       1.0000    0.71160   0.61980   0.79120   Biso      1.000     C          0.085767  
         C78       1.0000    0.78960   0.69680   0.79280   Biso      1.000     C          -0.072233           
         C79       1.0000    0.83100   0.73420   0.83980   Biso      1.000     C          0.658107  
         C80       1.0000    0.54570   0.86960   0.45030   Biso      1.000     C          0.085147  
         C81       1.0000    0.40000   0.88620   0.47240   Biso      1.000     C          -0.087425           
         C82       1.0000    0.32720   0.96240   0.46340   Biso      1.000     C          -0.067316           
         C83       1.0000    0.04800   0.50150   0.08590   Biso      1.000     C          0.06913899999999999           
         C84       1.0000    0.83100   0.73420   0.66020   Biso      1.000     C          0.658107  
         Er1       1.0000    0.52312   0.69889   0.91868   Biso      1.000     Er          2.1401220000000003  
         Er2       1.0000    0.97688   0.19889   0.08132   Biso      1.000     Er          2.140123  
         Er3       1.0000    0.47688   0.30111   0.41868   Biso      1.000     Er          2.1401220000000003  
         Er4       1.0000    0.02312   0.80111   0.58132   Biso      1.000     Er          2.1401220000000003  
         Er5       1.0000    0.47688   0.30111   0.08132   Biso      1.000     Er          2.1401220000000003  
         Er6       1.0000    0.02312   0.80111   0.91868   Biso      1.000     Er          2.140123  
         Er7       1.0000    0.52312   0.69889   0.58132   Biso      1.000     Er          2.140123  
         Er8       1.0000    0.97688   0.19889   0.41868   Biso      1.000     Er          2.140123  
         H1        1.0000    0.61080   0.28430   0.25000   Biso      1.000     H          0.130999  
         H2        1.0000    0.39970   0.96170   0.60580   Biso      1.000     H          0.093452  
         H3        1.0000    0.77330   0.02520   0.52300   Biso      1.000     H          0.130913  
         H4        1.0000    0.40480   0.18300   0.54400   Biso      1.000     H          0.108553  
         H5        1.0000    0.31600   0.40630   0.17920   Biso      1.000     H          0.09033   
         H6        1.0000    0.89970   0.53830   0.89420   Biso      1.000     H          0.093452  
         H7        1.0000    0.27330   0.47480   0.97700   Biso      1.000     H          0.130913  
         H8        1.0000    0.22670   0.97480   0.02300   Biso      1.000     H          0.130913  
         H9        1.0000    0.18400   0.90630   0.82080   Biso      1.000     H          0.09033   
         H10       1.0000    0.60030   0.03830   0.10580   Biso      1.000     H          0.093452  
         H11       1.0000    0.81600   0.09370   0.32080   Biso      1.000     H          0.09033   
         H12       1.0000    0.59520   0.81700   0.04400   Biso      1.000     H          0.108553  
         H13       1.0000    0.88920   0.78430   0.75000   Biso      1.000     H          0.131     
         H14       1.0000    0.90480   0.31700   0.95600   Biso      1.000     H          0.108553  
         H15       1.0000    0.72670   0.52520   0.47700   Biso      1.000     H          0.130913  
         H16       1.0000    0.09520   0.68300   0.45600   Biso      1.000     H          0.108553  
         H17       1.0000    0.60030   0.03830   0.39420   Biso      1.000     H          0.093452  
         H18       1.0000    0.31600   0.40630   0.32080   Biso      1.000     H          0.09033   
         H19       1.0000    0.89970   0.53830   0.60580   Biso      1.000     H          0.093452  
         H20       1.0000    0.27330   0.47480   0.52300   Biso      1.000     H          0.130913  
         H21       1.0000    0.90480   0.31700   0.54400   Biso      1.000     H          0.108553  
         H22       1.0000    0.18400   0.90630   0.67920   Biso      1.000     H          0.09033   
         H23       1.0000    0.11080   0.21570   0.25000   Biso      1.000     H          0.130999  
         H24       1.0000    0.10030   0.46170   0.39420   Biso      1.000     H          0.093452  
         H25       1.0000    0.22670   0.97480   0.47700   Biso      1.000     H          0.130913  
         H26       1.0000    0.38920   0.71570   0.75000   Biso      1.000     H          0.130999  
         H27       1.0000    0.59520   0.81700   0.45600   Biso      1.000     H          0.108553  
         H28       1.0000    0.10030   0.46170   0.10580   Biso      1.000     H          0.093452  
         H29       1.0000    0.72670   0.52520   0.02300   Biso      1.000     H          0.130913  
         H30       1.0000    0.09520   0.68300   0.04400   Biso      1.000     H          0.108553  
         H31       1.0000    0.81600   0.09370   0.17920   Biso      1.000     H          0.09033   
         H32       1.0000    0.39970   0.96170   0.89420   Biso      1.000     H          0.093452  
         H33       1.0000    0.77330   0.02520   0.97700   Biso      1.000     H          0.130913  
         H34       1.0000    0.40480   0.18300   0.95600   Biso      1.000     H          0.108553  
         H35       1.0000    0.68400   0.59370   0.67920   Biso      1.000     H          0.09033   
         H36       1.0000    0.68400   0.59370   0.82080   Biso      1.000     H          0.09033   
         N1        1.0000    0.32700   0.41980   0.25000   Biso      1.000     N          -0.256911           
         N2        1.0000    0.88200   0.42470   0.57850   Biso      1.000     N          -0.270429           
         N3        1.0000    0.67300   0.58020   0.75000   Biso      1.000     N          -0.256911           
         N4        1.0000    0.82700   0.08020   0.25000   Biso      1.000     N          -0.256911           
         N5        1.0000    0.61800   0.92470   0.42150   Biso      1.000     N          -0.270429           
         N6        1.0000    0.17300   0.91980   0.75000   Biso      1.000     N          -0.256911           
         N7        1.0000    0.38200   0.07530   0.92150   Biso      1.000     N          -0.270429           
         N8        1.0000    0.11800   0.57530   0.42150   Biso      1.000     N          -0.270429           
         N9        1.0000    0.38200   0.07530   0.57850   Biso      1.000     N          -0.270428           
         N10       1.0000    0.88200   0.42470   0.92150   Biso      1.000     N          -0.270429           
         N11       1.0000    0.61800   0.92470   0.07850   Biso      1.000     N          -0.270429           
         N12       1.0000    0.11800   0.57530   0.07850   Biso      1.000     N          -0.270429           
         O1        1.0000    0.80760   0.16120   0.02180   Biso      1.000     O          -0.6877949999999999           
         O2        1.0000    0.57620   0.83800   0.91000   Biso      1.000     O          -0.674305           
         O3        1.0000    0.81010   0.88470   0.93620   Biso      1.000     O          -0.7002010000000001           
         O4        1.0000    0.56490   0.29150   0.15910   Biso      1.000     O          -0.658916           
         O5        1.0000    0.73250   0.20790   0.12155   Biso      1.000     O          -0.754962           
         O6        1.0000    0.90800   0.74040   0.98460   Biso      1.000     O          -0.686095           
         O7        1.0000    0.69240   0.66120   0.97820   Biso      1.000     O          -0.6877949999999999           
         O8        1.0000    0.92380   0.33800   0.09000   Biso      1.000     O          -0.674305           
         O9        1.0000    0.68990   0.38470   0.06380   Biso      1.000     O          -0.7002010000000001           
         O10       1.0000    0.93510   0.79150   0.84090   Biso      1.000     O          -0.658916           
         O11       1.0000    0.40800   0.75960   0.51540   Biso      1.000     O          -0.686095           
         O12       1.0000    0.59200   0.24040   0.01540   Biso      1.000     O          -0.686095           
         O13       1.0000    0.19240   0.83880   0.52180   Biso      1.000     O          -0.6877949999999999           
         O14       1.0000    0.42380   0.16200   0.41000   Biso      1.000     O          -0.674305           
         O15       1.0000    0.18990   0.11530   0.43620   Biso      1.000     O          -0.7002010000000001           
         O16       1.0000    0.43510   0.70850   0.65910   Biso      1.000     O          -0.658916           
         O17       1.0000    0.26750   0.79210   0.62155   Biso      1.000     O          -0.754962           
         O18       1.0000    0.09200   0.25960   0.48460   Biso      1.000     O          -0.686095           
         O19       1.0000    0.30760   0.33880   0.47820   Biso      1.000     O          -0.6877949999999999           
         O20       1.0000    0.07620   0.66200   0.59000   Biso      1.000     O          -0.674305           
         O21       1.0000    0.31010   0.61530   0.56380   Biso      1.000     O          -0.7002010000000001           
         O22       1.0000    0.76750   0.70790   0.87845   Biso      1.000     O          -0.754962           
         O23       1.0000    0.76750   0.70790   0.62155   Biso      1.000     O          -0.754962           
         O24       1.0000    0.92380   0.33800   0.41000   Biso      1.000     O          -0.674305           
         O25       1.0000    0.68990   0.38470   0.43620   Biso      1.000     O          -0.7002010000000001           
         O26       1.0000    0.06490   0.20850   0.34090   Biso      1.000     O          -0.658916           
         O27       1.0000    0.40800   0.75960   0.98460   Biso      1.000     O          -0.686095           
         O28       1.0000    0.19240   0.83880   0.97820   Biso      1.000     O          -0.6877949999999999           
         O29       1.0000    0.42380   0.16200   0.09000   Biso      1.000     O          -0.674305           
         O30       1.0000    0.18990   0.11530   0.06380   Biso      1.000     O          -0.7002010000000001           
         O31       1.0000    0.43510   0.70850   0.84090   Biso      1.000     O          -0.658916           
         O32       1.0000    0.26750   0.79210   0.87845   Biso      1.000     O          -0.754962           
         O33       1.0000    0.09200   0.25960   0.01540   Biso      1.000     O          -0.686095           
         O34       1.0000    0.30760   0.33880   0.02180   Biso      1.000     O          -0.6877949999999999           
         O35       1.0000    0.07620   0.66200   0.91000   Biso      1.000     O          -0.674305           
         O36       1.0000    0.31010   0.61530   0.93620   Biso      1.000     O          -0.7002010000000001           
         O37       1.0000    0.06490   0.20850   0.15910   Biso      1.000     O          -0.658916           
         O38       1.0000    0.23250   0.29210   0.12155   Biso      1.000     O          -0.754962           
         O39       1.0000    0.59200   0.24040   0.48460   Biso      1.000     O          -0.686095           
         O40       1.0000    0.80760   0.16120   0.47820   Biso      1.000     O          -0.6877949999999999           
         O41       1.0000    0.57620   0.83800   0.59000   Biso      1.000     O          -0.674305           
         O42       1.0000    0.81010   0.88470   0.56380   Biso      1.000     O          -0.7002010000000001           
         O43       1.0000    0.56490   0.29150   0.34090   Biso      1.000     O          -0.658916           
         O44       1.0000    0.73250   0.20790   0.37845   Biso      1.000     O          -0.754962           
         O45       1.0000    0.90800   0.74040   0.51540   Biso      1.000     O          -0.686095           
         O46       1.0000    0.69240   0.66120   0.52180   Biso      1.000     O          -0.6877949999999999           
         O47       1.0000    0.93510   0.79150   0.65910   Biso      1.000     O          -0.658916           
         O48       1.0000    0.23250   0.29210   0.37845   Biso      1.000     O          -0.754962 