
##########################################################################
#               Crystallographic Information Format file
#               Produced by PyCifRW module
#
#  This is a CIF file.  CIF has been adopted by the International
#  Union of Crystallography as the standard for data archiving and
#  transmission.
#
#  For information on this file format, follow the CIF links at
#  http://www.iucr.org
##########################################################################

data_image0

_cell_length_a                          8.8853
_cell_length_b                          12.0782
_cell_length_c                          16.5903
_cell_angle_alpha                       90
_cell_angle_beta                        90
_cell_angle_gamma                       109.33
_symmetry_space_group_name_H-M          'P 1'
_symmetry_int_tables_number             1
loop_
  _symmetry_equiv_pos_as_xyz
         'x, y, z' 
loop_
  _atom_site_label
  _atom_site_occupancy
  _atom_site_fract_x
  _atom_site_fract_y
  _atom_site_fract_z
  _atom_site_thermal_displace_type
  _atom_site_B_iso_or_equiv
  _atom_site_type_symbol
  _atom_site_charge
         C1        1.0000    0.87880   0.99720   0.38545   Biso      1.000     C          -0.225097           
         C2        1.0000    0.37880   0.99720   0.11455   Biso      1.000     C          -0.22509099999999999          
         C3        1.0000    0.51270   0.99140   0.23880   Biso      1.000     C          -0.175448           
         C4        1.0000    0.26950   0.30470   0.44347   Biso      1.000     C          0.631109  
         C5        1.0000    0.87530   0.80210   0.57293   Biso      1.000     C          -0.173527           
         C6        1.0000    0.00400   0.04650   0.33318   Biso      1.000     C          0.26201199999999997           
         C7        1.0000    0.27170   0.30660   0.01410   Biso      1.000     C          -0.176229           
         C8        1.0000    0.63050   0.10250   0.50862   Biso      1.000     C          0.25196999999999997           
         C9        1.0000    0.56110   0.39040   0.79662   Biso      1.000     C          0.63171   
         C10       1.0000    0.37530   0.80210   0.92707   Biso      1.000     C          -0.173523           
         C11       1.0000    0.65760   0.35930   0.52416   Biso      1.000     C          0.6199399999999999  
         C12       1.0000    0.49230   0.90060   0.54411   Biso      1.000     C          -0.187513           
         C13       1.0000    0.10230   0.11550   0.75789   Biso      1.000     C          -0.18528699999999998          
         C14       1.0000    0.62120   0.00280   0.88545   Biso      1.000     C          -0.22509099999999999          
         C15       1.0000    0.34240   0.64070   0.47584   Biso      1.000     C          0.619938  
         C16       1.0000    0.22830   0.69340   0.51410   Biso      1.000     C          -0.176252           
         C17       1.0000    0.84240   0.64070   0.02416   Biso      1.000     C          0.619939  
         C18       1.0000    0.12120   0.00280   0.61455   Biso      1.000     C          -0.225097           
         C19       1.0000    0.23050   0.69530   0.94347   Biso      1.000     C          0.6311140000000001  
         C20       1.0000    0.09920   0.70420   0.29925   Biso      1.000     C          -0.17861400000000002          
         C21       1.0000    0.15760   0.35930   0.97584   Biso      1.000     C          0.619941  
         C22       1.0000    0.27500   0.83510   0.20446   Biso      1.000     C          0.269414  
         C23       1.0000    0.62470   0.19790   0.07293   Biso      1.000     C          -0.173524           
         C24       1.0000    0.49600   0.95350   0.83318   Biso      1.000     C          0.262015  
         C25       1.0000    0.13050   0.10250   0.99138   Biso      1.000     C          0.252013  
         C26       1.0000    0.12130   0.00290   0.94791   Biso      1.000     C          -0.16736600000000001          
         C27       1.0000    0.40080   0.29580   0.79925   Biso      1.000     C          -0.17861  
         C28       1.0000    0.26310   0.89130   0.13408   Biso      1.000     C          -0.146118           
         C29       1.0000    0.60230   0.11550   0.74211   Biso      1.000     C          -0.18528699999999998          
         C30       1.0000    0.48730   0.00860   0.76120   Biso      1.000     C          -0.175447           
         C31       1.0000    0.72500   0.16490   0.79554   Biso      1.000     C          0.269421  
         C32       1.0000    0.99230   0.90060   0.95589   Biso      1.000     C          -0.18751400000000001          
         C33       1.0000    0.76950   0.30470   0.05653   Biso      1.000     C          0.631116  
         C34       1.0000    0.50400   0.04650   0.16682   Biso      1.000     C          0.26201199999999997           
         C35       1.0000    0.01270   0.99140   0.26120   Biso      1.000     C          -0.17544500000000002          
         C36       1.0000    0.93890   0.60960   0.29662   Biso      1.000     C          0.6316970000000001  
         C37       1.0000    0.76310   0.89130   0.36592   Biso      1.000     C          -0.146122           
         C38       1.0000    0.62130   0.00290   0.55209   Biso      1.000     C          -0.167384           
         C39       1.0000    0.87870   0.99710   0.05209   Biso      1.000     C          -0.167371           
         C40       1.0000    0.59920   0.70420   0.20075   Biso      1.000     C          -0.178616           
         C41       1.0000    0.36950   0.89750   0.49138   Biso      1.000     C          0.251963  
         C42       1.0000    0.22500   0.16490   0.70446   Biso      1.000     C          0.269417  
         C43       1.0000    0.89770   0.88450   0.24211   Biso      1.000     C          -0.185288           
         C44       1.0000    0.99600   0.95350   0.66682   Biso      1.000     C          0.26200999999999997           
         C45       1.0000    0.06110   0.39040   0.70338   Biso      1.000     C          0.6317020000000001  
         C46       1.0000    0.73690   0.10870   0.86592   Biso      1.000     C          -0.146119           
         C47       1.0000    0.90080   0.29580   0.70075   Biso      1.000     C          -0.17861  
         C48       1.0000    0.98730   0.00860   0.73880   Biso      1.000     C          -0.17544400000000002          
         C49       1.0000    0.72830   0.69340   0.98590   Biso      1.000     C          -0.176222           
         C50       1.0000    0.39770   0.88450   0.25789   Biso      1.000     C          -0.185284           
         C51       1.0000    0.77170   0.30660   0.48590   Biso      1.000     C          -0.176257           
         C52       1.0000    0.43890   0.60960   0.20338   Biso      1.000     C          0.6317119999999999  
         C53       1.0000    0.50770   0.09940   0.45589   Biso      1.000     C          -0.187522           
         C54       1.0000    0.12470   0.19790   0.42707   Biso      1.000     C          -0.173528           
         C55       1.0000    0.86950   0.89750   0.00862   Biso      1.000     C          0.252019  
         C56       1.0000    0.77500   0.83510   0.29554   Biso      1.000     C          0.269424  
         C57       1.0000    0.23690   0.10870   0.63408   Biso      1.000     C          -0.146116           
         C58       1.0000    0.37870   0.99710   0.44791   Biso      1.000     C          -0.167381           
         C59       1.0000    0.73050   0.69530   0.55653   Biso      1.000     C          0.631104  
         C60       1.0000    0.00770   0.09940   0.04411   Biso      1.000     C          -0.18751199999999998          
         Eu1       1.0000    0.56684   0.54759   0.38247   Biso      1.000     Eu          1.353499  
         Eu2       1.0000    0.43316   0.45240   0.61753   Biso      1.000     Eu          1.353469  
         Eu3       1.0000    0.06684   0.54759   0.11753   Biso      1.000     Eu          1.353504  
         Eu4       1.0000    0.93316   0.45240   0.88247   Biso      1.000     Eu          1.353482  
         H1        1.0000    0.40440   0.97430   0.72540   Biso      1.000     H          0.13116   
         H2        1.0000    0.91070   0.22470   0.67760   Biso      1.000     H          0.110871  
         H3        1.0000    0.87200   0.03480   0.43360   Biso      1.000     H          0.119448  
         H4        1.0000    0.17760   0.85850   0.09950   Biso      1.000     H          0.13508   
         H5        1.0000    0.90440   0.97430   0.77460   Biso      1.000     H          0.131161  
         H6        1.0000    0.82780   0.32060   0.66770   Biso      1.000     H          0.134398  
         H7        1.0000    0.41070   0.22470   0.82240   Biso      1.000     H          0.110871  
         H8        1.0000    0.32780   0.32060   0.83230   Biso      1.000     H          0.134398  
         H9        1.0000    0.37200   0.03480   0.06640   Biso      1.000     H          0.119449  
         H10       1.0000    0.25250   0.70490   0.57110   Biso      1.000     H          0.12281700000000001           
         H11       1.0000    0.62800   0.96520   0.93360   Biso      1.000     H          0.119448  
         H12       1.0000    0.59650   0.15310   0.69390   Biso      1.000     H          0.142533  
         H13       1.0000    0.62040   0.13800   0.03320   Biso      1.000     H          0.10315   
         H14       1.0000    0.47080   0.78080   0.93310   Biso      1.000     H          0.12141300000000001           
         H15       1.0000    0.32240   0.14150   0.59950   Biso      1.000     H          0.135081  
         H16       1.0000    0.75250   0.70490   0.92890   Biso      1.000     H          0.12281199999999999           
         H17       1.0000    0.82240   0.14150   0.90050   Biso      1.000     H          0.135078  
         H18       1.0000    0.37920   0.36150   0.00900   Biso      1.000     H          0.151785  
         H19       1.0000    0.48800   0.83440   0.57390   Biso      1.000     H          0.139541  
         H20       1.0000    0.01200   0.16560   0.07390   Biso      1.000     H          0.13952699999999998           
         H21       1.0000    0.40350   0.84690   0.30610   Biso      1.000     H          0.142534  
         H22       1.0000    0.70330   0.00460   0.58740   Biso      1.000     H          0.13173900000000002           
         H23       1.0000    0.09560   0.02570   0.22540   Biso      1.000     H          0.13116   
         H24       1.0000    0.67220   0.67940   0.16770   Biso      1.000     H          0.134399  
         H25       1.0000    0.17220   0.67940   0.33230   Biso      1.000     H          0.134398  
         H26       1.0000    0.12800   0.96520   0.56640   Biso      1.000     H          0.119449  
         H27       1.0000    0.08930   0.77530   0.32240   Biso      1.000     H          0.110873  
         H28       1.0000    0.02920   0.21920   0.43310   Biso      1.000     H          0.12141500000000001           
         H29       1.0000    0.90350   0.84690   0.19390   Biso      1.000     H          0.142533  
         H30       1.0000    0.24750   0.29510   0.07110   Biso      1.000     H          0.12281099999999999           
         H31       1.0000    0.87920   0.36150   0.49100   Biso      1.000     H          0.151795  
         H32       1.0000    0.09650   0.15310   0.80610   Biso      1.000     H          0.142533  
         H33       1.0000    0.20330   0.00460   0.91260   Biso      1.000     H          0.131722  
         H34       1.0000    0.67760   0.85850   0.40050   Biso      1.000     H          0.135081  
         H35       1.0000    0.51200   0.16560   0.42610   Biso      1.000     H          0.139541  
         H36       1.0000    0.87960   0.86200   0.53320   Biso      1.000     H          0.103154  
         H37       1.0000    0.12040   0.13800   0.46680   Biso      1.000     H          0.103154  
         H38       1.0000    0.62080   0.63850   0.99100   Biso      1.000     H          0.151784  
         H39       1.0000    0.52920   0.21920   0.06690   Biso      1.000     H          0.12141300000000001           
         H40       1.0000    0.74750   0.29510   0.42890   Biso      1.000     H          0.12281600000000001           
         H41       1.0000    0.79670   0.99540   0.08740   Biso      1.000     H          0.131722  
         H42       1.0000    0.29670   0.99540   0.41260   Biso      1.000     H          0.13173900000000002           
         H43       1.0000    0.37960   0.86200   0.96680   Biso      1.000     H          0.10315   
         H44       1.0000    0.59560   0.02570   0.27460   Biso      1.000     H          0.131161  
         H45       1.0000    0.97080   0.78080   0.56690   Biso      1.000     H          0.12141400000000001           
         H46       1.0000    0.58930   0.77530   0.17760   Biso      1.000     H          0.110872  
         H47       1.0000    0.98800   0.83440   0.92610   Biso      1.000     H          0.13952799999999999           
         H48       1.0000    0.12080   0.63850   0.50900   Biso      1.000     H          0.151794  
         O1        1.0000    0.65990   0.63135   0.61409   Biso      1.000     O          -0.570182           
         O2        1.0000    0.09450   0.45522   0.76466   Biso      1.000     O          -0.5708810000000001           
         O3        1.0000    0.59910   0.32607   0.59145   Biso      1.000     O          -0.573525           
         O4        1.0000    0.15900   0.72614   0.21798   Biso      1.000     O          -0.18705  
         O5        1.0000    0.13080   0.44223   0.01196   Biso      1.000     O          -0.623052           
         O6        1.0000    0.63080   0.44223   0.48804   Biso      1.000     O          -0.623056           
         O7        1.0000    0.80200   0.31944   0.98339   Biso      1.000     O          -0.551242           
         O8        1.0000    0.76630   0.19782   0.52031   Biso      1.000     O          -0.160553           
         O9        1.0000    0.85110   0.60015   0.35665   Biso      1.000     O          -0.565896           
         O10       1.0000    0.15990   0.63135   0.88591   Biso      1.000     O          -0.570198           
         O11       1.0000    0.19800   0.68056   0.01661   Biso      1.000     O          -0.551233           
         O12       1.0000    0.09910   0.32607   0.90855   Biso      1.000     O          -0.573529           
         O13       1.0000    0.73370   0.80218   0.02031   Biso      1.000     O          -0.160576           
         O14       1.0000    0.90090   0.67393   0.09145   Biso      1.000     O          -0.5735319999999999           
         O15       1.0000    0.26630   0.19782   0.97969   Biso      1.000     O          -0.160577           
         O16       1.0000    0.34100   0.27386   0.71798   Biso      1.000     O          -0.187068           
         O17       1.0000    0.36920   0.55777   0.51196   Biso      1.000     O          -0.6230479999999999           
         O18       1.0000    0.62630   0.15112   0.15102   Biso      1.000     O          -0.145954           
         O19       1.0000    0.34010   0.36865   0.38591   Biso      1.000     O          -0.5702119999999999           
         O20       1.0000    0.65900   0.72614   0.28202   Biso      1.000     O          -0.187053           
         O21       1.0000    0.84010   0.36865   0.11409   Biso      1.000     O          -0.570214           
         O22       1.0000    0.69800   0.68056   0.48339   Biso      1.000     O          -0.551217           
         O23       1.0000    0.35110   0.60015   0.14335   Biso      1.000     O          -0.565915           
         O24       1.0000    0.87370   0.84888   0.65102   Biso      1.000     O          -0.145949           
         O25       1.0000    0.40550   0.54478   0.26466   Biso      1.000     O          -0.570889           
         O26       1.0000    0.59450   0.45522   0.73534   Biso      1.000     O          -0.570882           
         O27       1.0000    0.86920   0.55777   0.98804   Biso      1.000     O          -0.623045           
         O28       1.0000    0.84100   0.27386   0.78202   Biso      1.000     O          -0.187073           
         O29       1.0000    0.64890   0.39985   0.85665   Biso      1.000     O          -0.565914           
         O30       1.0000    0.14890   0.39985   0.64335   Biso      1.000     O          -0.5658989999999999           
         O31       1.0000    0.12630   0.15112   0.34898   Biso      1.000     O          -0.145952           
         O32       1.0000    0.37370   0.84888   0.84898   Biso      1.000     O          -0.145957           
         O33       1.0000    0.30200   0.31944   0.51661   Biso      1.000     O          -0.551227           
         O34       1.0000    0.90550   0.54478   0.23534   Biso      1.000     O          -0.57088  
         O35       1.0000    0.40090   0.67393   0.40855   Biso      1.000     O          -0.573525           
         O36       1.0000    0.23370   0.80218   0.47969   Biso      1.000     O          -0.160552 