
##########################################################################
#               Crystallographic Information Format file
#               Produced by PyCifRW module
#
#  This is a CIF file.  CIF has been adopted by the International
#  Union of Crystallography as the standard for data archiving and
#  transmission.
#
#  For information on this file format, follow the CIF links at
#  http://www.iucr.org
##########################################################################

data_image0

_cell_length_a                          8.8841
_cell_length_b                          12.058
_cell_length_c                          16.5763
_cell_angle_alpha                       90
_cell_angle_beta                        90
_cell_angle_gamma                       109.252
_symmetry_space_group_name_H-M          'P 1'
_symmetry_int_tables_number             1
loop_
  _symmetry_equiv_pos_as_xyz
         'x, y, z' 
loop_
  _atom_site_label
  _atom_site_occupancy
  _atom_site_fract_x
  _atom_site_fract_y
  _atom_site_fract_z
  _atom_site_thermal_displace_type
  _atom_site_B_iso_or_equiv
  _atom_site_type_symbol
  _atom_site_charge
         C1        1.0000    0.89730   0.88440   0.24210   Biso      1.000     C          -0.182585           
         C2        1.0000    0.50780   0.09920   0.45590   Biso      1.000     C          -0.18664  
         C3        1.0000    0.63050   0.10230   0.50870   Biso      1.000     C          0.252656  
         C4        1.0000    0.77190   0.30650   0.48530   Biso      1.000     C          -0.17726  
         C5        1.0000    0.65780   0.35960   0.52470   Biso      1.000     C          0.619827  
         C6        1.0000    0.43750   0.60910   0.20370   Biso      1.000     C          0.630717  
         C7        1.0000    0.59920   0.70430   0.20020   Biso      1.000     C          -0.174316           
         C8        1.0000    0.01230   0.99090   0.26110   Biso      1.000     C          -0.1785   
         C9        1.0000    0.77500   0.83490   0.29560   Biso      1.000     C          0.270203  
         C10       1.0000    0.76360   0.89110   0.36580   Biso      1.000     C          -0.14515  
         C11       1.0000    0.87800   0.99690   0.38510   Biso      1.000     C          -0.225073           
         C12       1.0000    0.00480   0.04670   0.33300   Biso      1.000     C          0.26453899999999997           
         C13       1.0000    0.12410   0.19750   0.42750   Biso      1.000     C          -0.171491           
         C14       1.0000    0.62160   0.00280   0.55180   Biso      1.000     C          -0.167105           
         C15       1.0000    0.27040   0.30470   0.44340   Biso      1.000     C          0.631843  
         C16       1.0000    0.99220   0.90080   0.95590   Biso      1.000     C          -0.186641           
         C17       1.0000    0.86950   0.89770   0.00870   Biso      1.000     C          0.252706  
         C18       1.0000    0.72810   0.69350   0.98530   Biso      1.000     C          -0.177241           
         C19       1.0000    0.84220   0.64040   0.02470   Biso      1.000     C          0.619833  
         C20       1.0000    0.06250   0.39090   0.70370   Biso      1.000     C          0.6307159999999999  
         C21       1.0000    0.90080   0.29570   0.70020   Biso      1.000     C          -0.174312           
         C22       1.0000    0.22960   0.69530   0.94340   Biso      1.000     C          0.631829  
         C23       1.0000    0.37590   0.80250   0.92750   Biso      1.000     C          -0.171487           
         C24       1.0000    0.49520   0.95330   0.83300   Biso      1.000     C          0.264546  
         C25       1.0000    0.62200   0.00310   0.88510   Biso      1.000     C          -0.225071           
         C26       1.0000    0.73640   0.10890   0.86580   Biso      1.000     C          -0.14515  
         C27       1.0000    0.72500   0.16510   0.79560   Biso      1.000     C          0.27021100000000003           
         C28       1.0000    0.87840   0.99720   0.05180   Biso      1.000     C          -0.16709100000000002          
         C29       1.0000    0.77040   0.30470   0.05660   Biso      1.000     C          0.631826  
         C30       1.0000    0.62410   0.19750   0.07250   Biso      1.000     C          -0.171482           
         C31       1.0000    0.50480   0.04670   0.16700   Biso      1.000     C          0.264556  
         C32       1.0000    0.37840   0.99720   0.44820   Biso      1.000     C          -0.167103           
         C33       1.0000    0.49220   0.90080   0.54410   Biso      1.000     C          -0.186641           
         C34       1.0000    0.36950   0.89770   0.49130   Biso      1.000     C          0.252653  
         C35       1.0000    0.22810   0.69350   0.51470   Biso      1.000     C          -0.17726  
         C36       1.0000    0.34220   0.64040   0.47530   Biso      1.000     C          0.6198239999999999  
         C37       1.0000    0.56250   0.39090   0.79630   Biso      1.000     C          0.630711  
         C38       1.0000    0.40080   0.29570   0.79980   Biso      1.000     C          -0.17431300000000002          
         C39       1.0000    0.98770   0.00910   0.73890   Biso      1.000     C          -0.178499           
         C40       1.0000    0.10270   0.11560   0.75790   Biso      1.000     C          -0.182583           
         C41       1.0000    0.22500   0.16510   0.70440   Biso      1.000     C          0.27021   
         C42       1.0000    0.23640   0.10890   0.63420   Biso      1.000     C          -0.145145           
         C43       1.0000    0.12200   0.00310   0.61490   Biso      1.000     C          -0.22507199999999997          
         C44       1.0000    0.99520   0.95330   0.66700   Biso      1.000     C          0.264545  
         C45       1.0000    0.87590   0.80250   0.57250   Biso      1.000     C          -0.17149  
         C46       1.0000    0.72960   0.69530   0.55660   Biso      1.000     C          0.631832  
         C47       1.0000    0.12160   0.00280   0.94820   Biso      1.000     C          -0.167099           
         C48       1.0000    0.00780   0.09920   0.04410   Biso      1.000     C          -0.186643           
         C49       1.0000    0.13050   0.10230   0.99130   Biso      1.000     C          0.252713  
         C50       1.0000    0.27190   0.30650   0.01470   Biso      1.000     C          -0.177241           
         C51       1.0000    0.15780   0.35960   0.97530   Biso      1.000     C          0.6198319999999999  
         C52       1.0000    0.93750   0.60910   0.29630   Biso      1.000     C          0.630706  
         C53       1.0000    0.09920   0.70430   0.29980   Biso      1.000     C          -0.174311           
         C54       1.0000    0.51230   0.99090   0.23890   Biso      1.000     C          -0.178497           
         C55       1.0000    0.39730   0.88440   0.25790   Biso      1.000     C          -0.182583           
         C56       1.0000    0.27500   0.83490   0.20440   Biso      1.000     C          0.270223  
         C57       1.0000    0.26360   0.89110   0.13420   Biso      1.000     C          -0.145145           
         C58       1.0000    0.37800   0.99690   0.11490   Biso      1.000     C          -0.22506700000000002          
         C59       1.0000    0.60270   0.11560   0.74210   Biso      1.000     C          -0.18258  
         C60       1.0000    0.48770   0.00910   0.76110   Biso      1.000     C          -0.178502           
         Eu1       1.0000    0.93332   0.45230   0.88254   Biso      1.000     Eu          1.353915  
         Eu2       1.0000    0.56668   0.54770   0.38254   Biso      1.000     Eu          1.353909  
         Eu3       1.0000    0.06668   0.54770   0.11746   Biso      1.000     Eu          1.3539139999999998  
         Eu4       1.0000    0.43332   0.45230   0.61746   Biso      1.000     Eu          1.353915  
         H1        1.0000    0.48760   0.83450   0.57410   Biso      1.000     H          0.13888499999999998           
         H2        1.0000    0.67190   0.67890   0.16720   Biso      1.000     H          0.133708  
         H3        1.0000    0.58940   0.77540   0.17690   Biso      1.000     H          0.10880699999999999           
         H4        1.0000    0.09500   0.02500   0.22520   Biso      1.000     H          0.130888  
         H5        1.0000    0.90280   0.84680   0.19370   Biso      1.000     H          0.141806  
         H6        1.0000    0.67850   0.85810   0.40060   Biso      1.000     H          0.134916  
         H7        1.0000    0.87020   0.03480   0.43310   Biso      1.000     H          0.11835599999999999           
         H8        1.0000    0.11990   0.13740   0.46710   Biso      1.000     H          0.10338299999999999           
         H9        1.0000    0.02890   0.21920   0.43370   Biso      1.000     H          0.121976  
         H10       1.0000    0.79600   0.99590   0.08680   Biso      1.000     H          0.131159  
         H11       1.0000    0.98760   0.83450   0.92590   Biso      1.000     H          0.138874  
         H12       1.0000    0.62040   0.63860   0.98980   Biso      1.000     H          0.15142   
         H13       1.0000    0.87960   0.36140   0.48980   Biso      1.000     H          0.151427  
         H14       1.0000    0.82810   0.32110   0.66720   Biso      1.000     H          0.133709  
         H15       1.0000    0.91060   0.22460   0.67690   Biso      1.000     H          0.10880799999999999           
         H16       1.0000    0.40500   0.97500   0.72520   Biso      1.000     H          0.13088699999999998           
         H17       1.0000    0.29600   0.99590   0.41320   Biso      1.000     H          0.131173  
         H18       1.0000    0.82150   0.14190   0.90060   Biso      1.000     H          0.134913  
         H19       1.0000    0.62980   0.96520   0.93310   Biso      1.000     H          0.118354  
         H20       1.0000    0.38010   0.86260   0.96710   Biso      1.000     H          0.103379  
         H21       1.0000    0.47110   0.78080   0.93370   Biso      1.000     H          0.121974  
         H22       1.0000    0.75360   0.70530   0.92840   Biso      1.000     H          0.12463199999999999           
         H23       1.0000    0.74640   0.29470   0.42840   Biso      1.000     H          0.12463699999999998           
         H24       1.0000    0.59720   0.15320   0.69370   Biso      1.000     H          0.141806  
         H25       1.0000    0.70400   0.00410   0.58680   Biso      1.000     H          0.131172  
         H26       1.0000    0.51240   0.16550   0.42590   Biso      1.000     H          0.13888499999999998           
         H27       1.0000    0.25360   0.70530   0.57160   Biso      1.000     H          0.12463699999999998           
         H28       1.0000    0.12040   0.63860   0.51020   Biso      1.000     H          0.151426  
         H29       1.0000    0.32810   0.32110   0.83280   Biso      1.000     H          0.133708  
         H30       1.0000    0.90500   0.97500   0.77480   Biso      1.000     H          0.130885  
         H31       1.0000    0.09720   0.15320   0.80630   Biso      1.000     H          0.141806  
         H32       1.0000    0.32150   0.14190   0.59940   Biso      1.000     H          0.134915  
         H33       1.0000    0.12980   0.96520   0.56690   Biso      1.000     H          0.118355  
         H34       1.0000    0.88010   0.86260   0.53290   Biso      1.000     H          0.10338199999999999           
         H35       1.0000    0.97110   0.78080   0.56630   Biso      1.000     H          0.121974  
         H36       1.0000    0.20400   0.00410   0.91320   Biso      1.000     H          0.131159  
         H37       1.0000    0.41060   0.22460   0.82310   Biso      1.000     H          0.10880699999999999           
         H38       1.0000    0.01240   0.16550   0.07410   Biso      1.000     H          0.138874  
         H39       1.0000    0.61990   0.13740   0.03290   Biso      1.000     H          0.10338   
         H40       1.0000    0.37020   0.03480   0.06690   Biso      1.000     H          0.118351  
         H41       1.0000    0.52890   0.21920   0.06630   Biso      1.000     H          0.121973  
         H42       1.0000    0.40280   0.84680   0.30630   Biso      1.000     H          0.14180399999999999           
         H43       1.0000    0.17850   0.85810   0.09940   Biso      1.000     H          0.134909  
         H44       1.0000    0.08940   0.77540   0.32310   Biso      1.000     H          0.10880699999999999           
         H45       1.0000    0.17190   0.67890   0.33280   Biso      1.000     H          0.133709  
         H46       1.0000    0.37960   0.36140   0.01020   Biso      1.000     H          0.151419  
         H47       1.0000    0.24640   0.29470   0.07160   Biso      1.000     H          0.124633  
         H48       1.0000    0.59500   0.02500   0.27480   Biso      1.000     H          0.130883  
         O1        1.0000    0.80210   0.31890   0.98350   Biso      1.000     O          -0.551149           
         O2        1.0000    0.62580   0.15090   0.15100   Biso      1.000     O          -0.144675           
         O3        1.0000    0.15850   0.72620   0.21840   Biso      1.000     O          -0.185801           
         O4        1.0000    0.85060   0.60000   0.35690   Biso      1.000     O          -0.5688479999999999           
         O5        1.0000    0.90490   0.54480   0.23500   Biso      1.000     O          -0.5754100000000001           
         O6        1.0000    0.13040   0.44220   0.01190   Biso      1.000     O          -0.623474           
         O7        1.0000    0.09870   0.32490   0.90860   Biso      1.000     O          -0.5704899999999999           
         O8        1.0000    0.34150   0.27380   0.71840   Biso      1.000     O          -0.18579  
         O9        1.0000    0.65720   0.63080   0.61390   Biso      1.000     O          -0.575317           
         O10       1.0000    0.69790   0.68110   0.48350   Biso      1.000     O          -0.551142           
         O11       1.0000    0.87420   0.84910   0.65100   Biso      1.000     O          -0.144663           
         O12       1.0000    0.36960   0.55780   0.51190   Biso      1.000     O          -0.623479           
         O13       1.0000    0.64940   0.40000   0.85690   Biso      1.000     O          -0.568864           
         O14       1.0000    0.59510   0.45520   0.73500   Biso      1.000     O          -0.5754100000000001           
         O15       1.0000    0.84280   0.36920   0.11390   Biso      1.000     O          -0.575313           
         O16       1.0000    0.26620   0.19730   0.97960   Biso      1.000     O          -0.160403           
         O17       1.0000    0.76620   0.19730   0.52040   Biso      1.000     O          -0.16038  
         O18       1.0000    0.09510   0.45520   0.76500   Biso      1.000     O          -0.575422           
         O19       1.0000    0.63040   0.44220   0.48810   Biso      1.000     O          -0.623484           
         O20       1.0000    0.40130   0.67510   0.40860   Biso      1.000     O          -0.570481           
         O21       1.0000    0.15720   0.63080   0.88610   Biso      1.000     O          -0.575308           
         O22       1.0000    0.19790   0.68110   0.01650   Biso      1.000     O          -0.551154           
         O23       1.0000    0.37420   0.84910   0.84900   Biso      1.000     O          -0.144672           
         O24       1.0000    0.84150   0.27380   0.78160   Biso      1.000     O          -0.1858   
         O25       1.0000    0.14940   0.40000   0.64310   Biso      1.000     O          -0.568869           
         O26       1.0000    0.86960   0.55780   0.98810   Biso      1.000     O          -0.623476           
         O27       1.0000    0.90130   0.67510   0.09140   Biso      1.000     O          -0.5704899999999999           
         O28       1.0000    0.73380   0.80270   0.02040   Biso      1.000     O          -0.160403           
         O29       1.0000    0.34280   0.36920   0.38610   Biso      1.000     O          -0.575317           
         O30       1.0000    0.30210   0.31890   0.51650   Biso      1.000     O          -0.551172           
         O31       1.0000    0.12580   0.15090   0.34900   Biso      1.000     O          -0.14466600000000002          
         O32       1.0000    0.65850   0.72620   0.28160   Biso      1.000     O          -0.18579500000000002          
         O33       1.0000    0.35060   0.60000   0.14310   Biso      1.000     O          -0.568874           
         O34       1.0000    0.40490   0.54480   0.26500   Biso      1.000     O          -0.575414           
         O35       1.0000    0.59870   0.32490   0.59140   Biso      1.000     O          -0.570481           
         O36       1.0000    0.23380   0.80270   0.47960   Biso      1.000     O          -0.160381 