
##########################################################################
#               Crystallographic Information Format file
#               Produced by PyCifRW module
#
#  This is a CIF file.  CIF has been adopted by the International
#  Union of Crystallography as the standard for data archiving and
#  transmission.
#
#  For information on this file format, follow the CIF links at
#  http://www.iucr.org
##########################################################################

data_image0

_cell_length_a                          6.8711
_cell_length_b                          14.01
_cell_length_c                          14.915
_cell_angle_alpha                       90
_cell_angle_beta                        90
_cell_angle_gamma                       90
_symmetry_space_group_name_H-M          'P 1'
_symmetry_int_tables_number             1
loop_
  _symmetry_equiv_pos_as_xyz
         'x, y, z' 
loop_
  _atom_site_label
  _atom_site_occupancy
  _atom_site_fract_x
  _atom_site_fract_y
  _atom_site_fract_z
  _atom_site_thermal_displace_type
  _atom_site_B_iso_or_equiv
  _atom_site_type_symbol
  _atom_site_charge
         C1        1.0000    0.63900   0.84210   0.01250   Biso      1.000     C          -0.088019           
         C2        1.0000    0.63700   0.09650   0.23290   Biso      1.000     C          -0.11903699999999999          
         C3        1.0000    0.62710   0.14540   0.07450   Biso      1.000     C          0.601172  
         C4        1.0000    0.87680   0.13460   0.86500   Biso      1.000     C          0.635997  
         C5        1.0000    0.87110   0.06770   0.78530   Biso      1.000     C          -0.063803           
         C6        1.0000    0.86180   0.09970   0.69390   Biso      1.000     C          0.05985700000000001           
         C7        1.0000    0.85570   0.19840   0.66980   Biso      1.000     C          -0.150624           
         C8        1.0000    0.85520   0.22590   0.58130   Biso      1.000     C          -0.087145           
         C9        1.0000    0.86100   0.15790   0.51250   Biso      1.000     C          -0.088018           
         C10       1.0000    0.86500   0.06330   0.53220   Biso      1.000     C          -0.14666099999999999          
         C11       1.0000    0.62670   0.02890   0.30260   Biso      1.000     C          -0.108126           
         C12       1.0000    0.86690   0.03080   0.62310   Biso      1.000     C          0.052722000000000005          
         C13       1.0000    0.87290   0.85460   0.57450   Biso      1.000     C          0.601172  
         C14       1.0000    0.86300   0.90350   0.73290   Biso      1.000     C          -0.119038           
         C15       1.0000    0.87330   0.97110   0.80260   Biso      1.000     C          -0.108122           
         C16       1.0000    0.62320   0.86540   0.36500   Biso      1.000     C          0.635996  
         C17       1.0000    0.62890   0.93230   0.28530   Biso      1.000     C          -0.063799           
         C18       1.0000    0.63820   0.90030   0.19390   Biso      1.000     C          0.05985700000000001           
         C19       1.0000    0.64430   0.80160   0.16980   Biso      1.000     C          -0.150624           
         C20       1.0000    0.64480   0.77410   0.08130   Biso      1.000     C          -0.087143           
         C21       1.0000    0.63500   0.06830   0.14460   Biso      1.000     C          -0.077944           
         C22       1.0000    0.86500   0.93170   0.64460   Biso      1.000     C          -0.077943           
         C23       1.0000    0.12320   0.63460   0.63500   Biso      1.000     C          0.635997  
         C24       1.0000    0.12890   0.56770   0.71470   Biso      1.000     C          -0.063803           
         C25       1.0000    0.13820   0.59970   0.80610   Biso      1.000     C          0.05985599999999999           
         C26       1.0000    0.37330   0.52890   0.19740   Biso      1.000     C          -0.108126           
         C27       1.0000    0.36300   0.59650   0.26710   Biso      1.000     C          -0.11903699999999999          
         C28       1.0000    0.37290   0.64540   0.42550   Biso      1.000     C          0.601172  
         C29       1.0000    0.36500   0.56830   0.35540   Biso      1.000     C          -0.077943           
         C30       1.0000    0.36690   0.46920   0.37690   Biso      1.000     C          0.052722000000000005          
         C31       1.0000    0.36500   0.43670   0.46780   Biso      1.000     C          -0.146675           
         C32       1.0000    0.36100   0.34210   0.48750   Biso      1.000     C          -0.088004           
         C33       1.0000    0.35520   0.27410   0.41870   Biso      1.000     C          -0.08715099999999999          
         C34       1.0000    0.35570   0.30160   0.33020   Biso      1.000     C          -0.150618           
         C35       1.0000    0.36180   0.40030   0.30610   Biso      1.000     C          0.05985700000000001           
         C36       1.0000    0.37110   0.43230   0.21470   Biso      1.000     C          -0.063799           
         C37       1.0000    0.37680   0.36540   0.13500   Biso      1.000     C          0.635996  
         C38       1.0000    0.12670   0.47110   0.69740   Biso      1.000     C          -0.108122           
         C39       1.0000    0.13700   0.40350   0.76710   Biso      1.000     C          -0.11903699999999999          
         C40       1.0000    0.12710   0.35460   0.92550   Biso      1.000     C          0.601172  
         C41       1.0000    0.13500   0.43170   0.85540   Biso      1.000     C          -0.077943           
         C42       1.0000    0.13310   0.53080   0.87690   Biso      1.000     C          0.052724  
         C43       1.0000    0.13500   0.56330   0.96780   Biso      1.000     C          -0.146675           
         C44       1.0000    0.13900   0.65790   0.98750   Biso      1.000     C          -0.088004           
         C45       1.0000    0.14480   0.72590   0.91870   Biso      1.000     C          -0.08715099999999999          
         C46       1.0000    0.14430   0.69840   0.83020   Biso      1.000     C          -0.150617           
         C47       1.0000    0.63500   0.93670   0.03220   Biso      1.000     C          -0.14666099999999999          
         C48       1.0000    0.63310   0.96920   0.12310   Biso      1.000     C          0.052723  
         Cd1       1.0000    0.60896   0.29978   0.96060   Biso      1.000     Cd          1.125522  
         Cd2       1.0000    0.89104   0.70022   0.46060   Biso      1.000     Cd          1.125521  
         Cd3       1.0000    0.39104   0.79978   0.53940   Biso      1.000     Cd          1.125521  
         Cd4       1.0000    0.10896   0.20022   0.03940   Biso      1.000     Cd          1.125522  
         H1        1.0000    0.38160   0.54990   0.13840   Biso      1.000     H          0.11758900000000001           
         H2        1.0000    0.85190   0.24460   0.71450   Biso      1.000     H          0.115753  
         H3        1.0000    0.85110   0.29050   0.56690   Biso      1.000     H          0.110154  
         H4        1.0000    0.86660   0.01890   0.48590   Biso      1.000     H          0.11813599999999999           
         H5        1.0000    0.85490   0.83890   0.74670   Biso      1.000     H          0.121001  
         H6        1.0000    0.88160   0.95010   0.86160   Biso      1.000     H          0.11758900000000001           
         H7        1.0000    0.64810   0.75540   0.21450   Biso      1.000     H          0.115753  
         H8        1.0000    0.64890   0.70950   0.06690   Biso      1.000     H          0.11015499999999999           
         H9        1.0000    0.63790   0.82230   0.95300   Biso      1.000     H          0.109276  
         H10       1.0000    0.63340   0.98110   0.98590   Biso      1.000     H          0.11813599999999999           
         H11       1.0000    0.86210   0.17770   0.45300   Biso      1.000     H          0.109276  
         H12       1.0000    0.61840   0.04990   0.36160   Biso      1.000     H          0.11758900000000001           
         H13       1.0000    0.64510   0.16110   0.24670   Biso      1.000     H          0.121001  
         H14       1.0000    0.35490   0.66110   0.25330   Biso      1.000     H          0.121001  
         H15       1.0000    0.36660   0.48110   0.51410   Biso      1.000     H          0.11813599999999999           
         H16       1.0000    0.36210   0.32230   0.54700   Biso      1.000     H          0.109275  
         H17       1.0000    0.35190   0.25540   0.28550   Biso      1.000     H          0.115753  
         H18       1.0000    0.35110   0.20950   0.43310   Biso      1.000     H          0.11015499999999999           
         H19       1.0000    0.14510   0.33890   0.75330   Biso      1.000     H          0.121001  
         H20       1.0000    0.13340   0.51890   0.01410   Biso      1.000     H          0.11813599999999999           
         H21       1.0000    0.13790   0.67770   0.04700   Biso      1.000     H          0.109275  
         H22       1.0000    0.14890   0.79050   0.93310   Biso      1.000     H          0.11015499999999999           
         H23       1.0000    0.14810   0.74460   0.78550   Biso      1.000     H          0.115753  
         H24       1.0000    0.11840   0.45010   0.63840   Biso      1.000     H          0.11758900000000001           
         O1        1.0000    0.48350   0.39211   0.07050   Biso      1.000     O          -0.5729380000000001           
         O2        1.0000    0.22310   0.70910   0.63878   Biso      1.000     O          -0.579037           
         O3        1.0000    0.27690   0.29090   0.13878   Biso      1.000     O          -0.579037           
         O4        1.0000    0.25380   0.28860   0.92118   Biso      1.000     O          -0.601774           
         O5        1.0000    0.99440   0.35484   0.98339   Biso      1.000     O          -0.572078           
         O6        1.0000    0.01650   0.60789   0.57050   Biso      1.000     O          -0.572937           
         O7        1.0000    0.75380   0.21140   0.07882   Biso      1.000     O          -0.601774           
         O8        1.0000    0.98350   0.10789   0.92950   Biso      1.000     O          -0.5729380000000001           
         O9        1.0000    0.51650   0.89211   0.42950   Biso      1.000     O          -0.5729380000000001           
         O10       1.0000    0.72310   0.79090   0.36122   Biso      1.000     O          -0.579037           
         O11       1.0000    0.74620   0.78860   0.57882   Biso      1.000     O          -0.601774           
         O12       1.0000    0.00560   0.85484   0.51661   Biso      1.000     O          -0.572078           
         O13       1.0000    0.77690   0.20910   0.86122   Biso      1.000     O          -0.579037           
         O14       1.0000    0.50560   0.64516   0.48339   Biso      1.000     O          -0.572078           
         O15       1.0000    0.49440   0.14516   0.01661   Biso      1.000     O          -0.572078           
         O16       1.0000    0.24620   0.71140   0.42118   Biso      1.000     O          -0.601774 