
##########################################################################
#               Crystallographic Information Format file
#               Produced by PyCifRW module
#
#  This is a CIF file.  CIF has been adopted by the International
#  Union of Crystallography as the standard for data archiving and
#  transmission.
#
#  For information on this file format, follow the CIF links at
#  http://www.iucr.org
##########################################################################

data_image0

_cell_length_a                          19.127
_cell_length_b                          19.127
_cell_length_c                          19.127
_cell_angle_alpha                       109.471
_cell_angle_beta                        109.471
_cell_angle_gamma                       109.471
_symmetry_space_group_name_H-M          'P 1'
_symmetry_int_tables_number             1
loop_
  _symmetry_equiv_pos_as_xyz
         'x, y, z' 
loop_
  _atom_site_label
  _atom_site_occupancy
  _atom_site_fract_x
  _atom_site_fract_y
  _atom_site_fract_z
  _atom_site_thermal_displace_type
  _atom_site_B_iso_or_equiv
  _atom_site_type_symbol
  _atom_site_charge
         C1        1.0000    0.68910   0.39740   0.92910   Biso      1.000     C          0.105773  
         C2        1.0000    0.55850   0.37750   0.48060   Biso      1.000     C          0.072616  
         C3        1.0000    0.59550   0.36670   0.42940   Biso      1.000     C          -0.12674  
         C4        1.0000    0.63620   0.31850   0.42930   Biso      1.000     C          0.069139  
         C5        1.0000    0.50310   0.41650   0.46580   Biso      1.000     C          0.354973  
         C6        1.0000    0.76000   0.07090   0.46830   Biso      1.000     C          0.105652  
         C7        1.0000    0.80820   0.03020   0.46820   Biso      1.000     C          -0.135959           
         C8        1.0000    0.89690   0.07790   0.51940   Biso      1.000     C          0.072594  
         C9        1.0000    0.93730   0.16610   0.57060   Biso      1.000     C          -0.126715           
         C10       1.0000    0.56200   0.34000   0.53180   Biso      1.000     C          -0.136038           
         C11       1.0000    0.88920   0.20690   0.57070   Biso      1.000     C          0.069116  
         C12       1.0000    0.31090   0.24000   0.70830   Biso      1.000     C          0.105684  
         C13       1.0000    0.53420   0.95070   0.03730   Biso      1.000     C          0.354929  
         C14       1.0000    0.57070   0.88920   0.20690   Biso      1.000     C          0.069116  
         C15       1.0000    0.57060   0.93730   0.16610   Biso      1.000     C          -0.126716           
         C16       1.0000    0.51940   0.89690   0.07790   Biso      1.000     C          0.072596  
         C17       1.0000    0.46820   0.80820   0.03020   Biso      1.000     C          -0.135959           
         C18       1.0000    0.46830   0.76000   0.07090   Biso      1.000     C          0.105651  
         C19       1.0000    0.46580   0.50310   0.41650   Biso      1.000     C          0.354973  
         C20       1.0000    0.95070   0.03730   0.53420   Biso      1.000     C          0.35493   
         C21       1.0000    0.42930   0.63620   0.31850   Biso      1.000     C          0.069139  
         C22       1.0000    0.60260   0.29170   0.53170   Biso      1.000     C          0.105725  
         C23       1.0000    0.36380   0.79310   0.68230   Biso      1.000     C          0.069167  
         C24       1.0000    0.31770   0.11080   0.68150   Biso      1.000     C          0.069158  
         C25       1.0000    0.08660   0.04930   0.58350   Biso      1.000     C          0.354973  
         C26       1.0000    0.22200   0.19180   0.66000   Biso      1.000     C          -0.136035           
         C27       1.0000    0.77800   0.43800   0.96980   Biso      1.000     C          -0.136013           
         C28       1.0000    0.81900   0.44150   0.92210   Biso      1.000     C          0.072621  
         C29       1.0000    0.77120   0.40450   0.83390   Biso      1.000     C          -0.12679  
         C30       1.0000    0.68230   0.36380   0.79310   Biso      1.000     C          0.069167  
         C31       1.0000    0.91340   0.49690   0.96270   Biso      1.000     C          0.354964  
         C32       1.0000    0.49690   0.96270   0.91340   Biso      1.000     C          0.354964  
         C33       1.0000    0.24000   0.70830   0.31090   Biso      1.000     C          0.105683  
         C34       1.0000    0.10310   0.62250   0.18100   Biso      1.000     C          0.072633  
         C35       1.0000    0.06270   0.63330   0.22880   Biso      1.000     C          -0.126793           
         C36       1.0000    0.11080   0.68150   0.31770   Biso      1.000     C          0.069157  
         C37       1.0000    0.04930   0.58350   0.08660   Biso      1.000     C          0.354973  
         C38       1.0000    0.39740   0.92910   0.68910   Biso      1.000     C          0.105773  
         C39       1.0000    0.43800   0.96980   0.77800   Biso      1.000     C          -0.136013           
         C40       1.0000    0.44150   0.92210   0.81900   Biso      1.000     C          0.072621  
         C41       1.0000    0.40450   0.83390   0.77120   Biso      1.000     C          -0.12679  
         C42       1.0000    0.19180   0.66000   0.22200   Biso      1.000     C          -0.136035           
         C43       1.0000    0.42940   0.59550   0.36670   Biso      1.000     C          -0.126741           
         C44       1.0000    0.48060   0.55850   0.37750   Biso      1.000     C          0.072618  
         C45       1.0000    0.53180   0.56200   0.34000   Biso      1.000     C          -0.136038           
         C46       1.0000    0.92910   0.68910   0.39740   Biso      1.000     C          0.105773  
         C47       1.0000    0.96980   0.77800   0.43800   Biso      1.000     C          -0.136013           
         C48       1.0000    0.92210   0.81900   0.44150   Biso      1.000     C          0.072621  
         C49       1.0000    0.83390   0.77120   0.40450   Biso      1.000     C          -0.12679  
         C50       1.0000    0.22880   0.06270   0.63330   Biso      1.000     C          -0.126795           
         C51       1.0000    0.96270   0.91340   0.49690   Biso      1.000     C          0.354964  
         C52       1.0000    0.70830   0.31090   0.24000   Biso      1.000     C          0.105684  
         C53       1.0000    0.66000   0.22200   0.19180   Biso      1.000     C          -0.136036           
         C54       1.0000    0.62250   0.18100   0.10310   Biso      1.000     C          0.072633  
         C55       1.0000    0.63330   0.22880   0.06270   Biso      1.000     C          -0.126793           
         C56       1.0000    0.68150   0.31770   0.11080   Biso      1.000     C          0.069157  
         C57       1.0000    0.58350   0.08660   0.04930   Biso      1.000     C          0.354973  
         C58       1.0000    0.79310   0.68230   0.36380   Biso      1.000     C          0.069167  
         C59       1.0000    0.03020   0.46820   0.80820   Biso      1.000     C          -0.135959           
         C60       1.0000    0.07090   0.46830   0.76000   Biso      1.000     C          0.105652  
         C61       1.0000    0.53170   0.60260   0.29170   Biso      1.000     C          0.105725  
         C62       1.0000    0.41650   0.46580   0.50310   Biso      1.000     C          0.354973  
         C63       1.0000    0.31850   0.42930   0.63620   Biso      1.000     C          0.069139  
         C64       1.0000    0.36670   0.42940   0.59550   Biso      1.000     C          -0.126741           
         C65       1.0000    0.37750   0.48060   0.55850   Biso      1.000     C          0.072618  
         C66       1.0000    0.18100   0.10310   0.62250   Biso      1.000     C          0.072635  
         C67       1.0000    0.29170   0.53170   0.60260   Biso      1.000     C          0.105725  
         C68       1.0000    0.03730   0.53420   0.95070   Biso      1.000     C          0.35493   
         C69       1.0000    0.20690   0.57070   0.88920   Biso      1.000     C          0.069116  
         C70       1.0000    0.16610   0.57060   0.93730   Biso      1.000     C          -0.126716           
         C71       1.0000    0.07790   0.51940   0.89690   Biso      1.000     C          0.072595  
         C72       1.0000    0.34000   0.53180   0.56200   Biso      1.000     C          -0.136038           
         Cl1       1.0000    0.50000   0.63080   0.13080   Biso      1.000     Cl          -0.5683   
         Cl2       1.0000    0.50000   0.36920   0.86920   Biso      1.000     Cl          -0.568312           
         Cl3       1.0000    0.36920   0.86920   0.50000   Biso      1.000     Cl          -0.568311           
         Cl4       1.0000    0.63080   0.13080   0.50000   Biso      1.000     Cl          -0.5683   
         Cl5       1.0000    0.68610   0.48776   0.34206   Biso      1.000     Cl          -0.477699           
         Cl6       1.0000    0.85430   0.51224   0.19834   Biso      1.000     Cl          -0.477715           
         Cl7       1.0000    0.31390   0.65596   0.80166   Biso      1.000     Cl          -0.477727           
         Cl8       1.0000    0.65596   0.80166   0.31390   Biso      1.000     Cl          -0.477726           
         Cl9       1.0000    0.34404   0.65794   0.14570   Biso      1.000     Cl          -0.477704           
         Cl10      1.0000    0.51224   0.19834   0.85430   Biso      1.000     Cl          -0.477715           
         Cl11      1.0000    0.48776   0.34206   0.68610   Biso      1.000     Cl          -0.477698           
         Cl12      1.0000    0.19834   0.85430   0.51224   Biso      1.000     Cl          -0.477715           
         Cl13      1.0000    0.65794   0.14570   0.34404   Biso      1.000     Cl          -0.477704           
         Cl14      1.0000    0.80166   0.31390   0.65596   Biso      1.000     Cl          -0.477727           
         Cl15      1.0000    0.14570   0.34404   0.65794   Biso      1.000     Cl          -0.477704           
         Cl16      1.0000    0.34206   0.68610   0.48776   Biso      1.000     Cl          -0.477698           
         Cl17      1.0000    0.86920   0.50000   0.36920   Biso      1.000     Cl          -0.568312           
         Cl18      1.0000    0.13080   0.50000   0.63080   Biso      1.000     Cl          -0.5683   
         H1        1.0000    0.96160   0.66110   0.39490   Biso      1.000     H          0.111053  
         H2        1.0000    0.40690   0.80130   0.79920   Biso      1.000     H          0.131509  
         H3        1.0000    0.35030   0.08310   0.68880   Biso      1.000     H          0.103583  
         H4        1.0000    0.66110   0.39490   0.96160   Biso      1.000     H          0.111053  
         H5        1.0000    0.81060   0.46330   0.03010   Biso      1.000     H          0.127713  
         H6        1.0000    0.79920   0.40690   0.80130   Biso      1.000     H          0.131509  
         H7        1.0000    0.64970   0.33850   0.73280   Biso      1.000     H          0.103584  
         H8        1.0000    0.30050   0.73380   0.33890   Biso      1.000     H          0.111096  
         H9        1.0000    0.21950   0.65270   0.18940   Biso      1.000     H          0.127752  
         H10       1.0000    0.00210   0.60770   0.20080   Biso      1.000     H          0.131521  
         H11       1.0000    0.08310   0.68880   0.35030   Biso      1.000     H          0.103583  
         H12       1.0000    0.39490   0.96160   0.66110   Biso      1.000     H          0.111053  
         H13       1.0000    0.91690   0.26720   0.60570   Biso      1.000     H          0.103583  
         H14       1.0000    0.99790   0.19870   0.60560   Biso      1.000     H          0.131496  
         H15       1.0000    0.78050   0.96990   0.43320   Biso      1.000     H          0.127716  
         H16       1.0000    0.69950   0.03840   0.43330   Biso      1.000     H          0.111105  
         H17       1.0000    0.66150   0.31120   0.39430   Biso      1.000     H          0.103585  
         H18       1.0000    0.59310   0.39230   0.39440   Biso      1.000     H          0.1315    
         H19       1.0000    0.53670   0.34730   0.56680   Biso      1.000     H          0.127755  
         H20       1.0000    0.60510   0.26620   0.56670   Biso      1.000     H          0.111058  
         H21       1.0000    0.33850   0.73280   0.64970   Biso      1.000     H          0.103584  
         H22       1.0000    0.18940   0.21950   0.65270   Biso      1.000     H          0.127752  
         H23       1.0000    0.33890   0.30050   0.73380   Biso      1.000     H          0.111096  
         H24       1.0000    0.20080   0.00210   0.60770   Biso      1.000     H          0.131521  
         H25       1.0000    0.60560   0.99790   0.19870   Biso      1.000     H          0.131497  
         H26       1.0000    0.03010   0.81060   0.46330   Biso      1.000     H          0.127713  
         H27       1.0000    0.80130   0.79920   0.40690   Biso      1.000     H          0.131509  
         H28       1.0000    0.73280   0.64970   0.33850   Biso      1.000     H          0.103584  
         H29       1.0000    0.73380   0.33890   0.30050   Biso      1.000     H          0.111098  
         H30       1.0000    0.65270   0.18940   0.21950   Biso      1.000     H          0.127752  
         H31       1.0000    0.60770   0.20080   0.00210   Biso      1.000     H          0.131521  
         H32       1.0000    0.68880   0.35030   0.08310   Biso      1.000     H          0.103583  
         H33       1.0000    0.03840   0.43330   0.69950   Biso      1.000     H          0.111105  
         H34       1.0000    0.96990   0.43320   0.78050   Biso      1.000     H          0.127716  
         H35       1.0000    0.60570   0.91690   0.26720   Biso      1.000     H          0.103583  
         H36       1.0000    0.19870   0.60560   0.99790   Biso      1.000     H          0.131497  
         H37       1.0000    0.31120   0.39430   0.66150   Biso      1.000     H          0.103586  
         H38       1.0000    0.43320   0.78050   0.96990   Biso      1.000     H          0.127717  
         H39       1.0000    0.43330   0.69950   0.03840   Biso      1.000     H          0.111105  
         H40       1.0000    0.39430   0.66150   0.31120   Biso      1.000     H          0.103586  
         H41       1.0000    0.39440   0.59310   0.39230   Biso      1.000     H          0.131501  
         H42       1.0000    0.56680   0.53670   0.34730   Biso      1.000     H          0.127755  
         H43       1.0000    0.56670   0.60510   0.26620   Biso      1.000     H          0.111058  
         H44       1.0000    0.26720   0.60570   0.91690   Biso      1.000     H          0.103583  
         H45       1.0000    0.46330   0.03010   0.81060   Biso      1.000     H          0.127713  
         H46       1.0000    0.34730   0.56680   0.53670   Biso      1.000     H          0.127755  
         H47       1.0000    0.26620   0.56670   0.60510   Biso      1.000     H          0.111058  
         H48       1.0000    0.39230   0.39440   0.59310   Biso      1.000     H          0.131501  
         In1       1.0000    0.76394   0.50000   0.26394   Biso      1.000     In          1.074223  
         In2       1.0000    0.23606   0.50000   0.73606   Biso      1.000     In          1.074213  
         In3       1.0000    0.50000   0.73606   0.23606   Biso      1.000     In          1.074213  
         In4       1.0000    0.50000   0.26394   0.76394   Biso      1.000     In          1.074223  
         In5       1.0000    0.26394   0.76394   0.50000   Biso      1.000     In          1.074223  
         In6       1.0000    0.73606   0.23606   0.50000   Biso      1.000     In          1.074213  
         N1        1.0000    0.94880   0.48930   0.91030   Biso      1.000     N          -0.371555           
         N2        1.0000    0.91030   0.94880   0.48930   Biso      1.000     N          -0.371555           
         N3        1.0000    0.80050   0.15920   0.51950   Biso      1.000     N          -0.217219           
         N4        1.0000    0.63970   0.28100   0.48050   Biso      1.000     N          -0.217215           
         N5        1.0000    0.54050   0.05120   0.96150   Biso      1.000     N          -0.371581           
         N6        1.0000    0.36030   0.84080   0.64130   Biso      1.000     N          -0.217252           
         N7        1.0000    0.08970   0.57900   0.03850   Biso      1.000     N          -0.37158  
         N8        1.0000    0.19950   0.71900   0.35870   Biso      1.000     N          -0.217235           
         N9        1.0000    0.96150   0.54050   0.05120   Biso      1.000     N          -0.371581           
         N10       1.0000    0.64130   0.36030   0.84080   Biso      1.000     N          -0.217253           
         N11       1.0000    0.03850   0.08970   0.57900   Biso      1.000     N          -0.37158  
         N12       1.0000    0.35870   0.19950   0.71900   Biso      1.000     N          -0.217235           
         N13       1.0000    0.48930   0.91030   0.94880   Biso      1.000     N          -0.371555           
         N14       1.0000    0.51950   0.80050   0.15920   Biso      1.000     N          -0.217219           
         N15       1.0000    0.51070   0.45950   0.42100   Biso      1.000     N          -0.371588           
         N16       1.0000    0.48050   0.63970   0.28100   Biso      1.000     N          -0.217216           
         N17       1.0000    0.42100   0.51070   0.45950   Biso      1.000     N          -0.371588           
         N18       1.0000    0.84080   0.64130   0.36030   Biso      1.000     N          -0.217253           
         N19       1.0000    0.05120   0.96150   0.54050   Biso      1.000     N          -0.371581           
         N20       1.0000    0.71900   0.35870   0.19950   Biso      1.000     N          -0.217235           
         N21       1.0000    0.57900   0.03850   0.08970   Biso      1.000     N          -0.37158  
         N22       1.0000    0.15920   0.51950   0.80050   Biso      1.000     N          -0.217219           
         N23       1.0000    0.28100   0.48050   0.63970   Biso      1.000     N          -0.217215           
         N24       1.0000    0.45950   0.42100   0.51070   Biso      1.000     N          -0.371588 