
##########################################################################
#               Crystallographic Information Format file
#               Produced by PyCifRW module
#
#  This is a CIF file.  CIF has been adopted by the International
#  Union of Crystallography as the standard for data archiving and
#  transmission.
#
#  For information on this file format, follow the CIF links at
#  http://www.iucr.org
##########################################################################

data_image0

_cell_length_a                          20.4633
_cell_length_b                          9.2876
_cell_length_c                          6.8839
_cell_angle_alpha                       90
_cell_angle_beta                        112.718
_cell_angle_gamma                       90
_symmetry_space_group_name_H-M          'P 1'
_symmetry_int_tables_number             1
loop_
  _symmetry_equiv_pos_as_xyz
         'x, y, z' 
loop_
  _atom_site_label
  _atom_site_occupancy
  _atom_site_fract_x
  _atom_site_fract_y
  _atom_site_fract_z
  _atom_site_thermal_displace_type
  _atom_site_B_iso_or_equiv
  _atom_site_type_symbol
  _atom_site_charge
         C1        1.0000    0.79330   0.75170   0.22200   Biso      1.000     C          -0.091619           
         C2        1.0000    0.89500   0.83310   0.13780   Biso      1.000     C          0.597809  
         C3        1.0000    0.60890   0.63470   0.88780   Biso      1.000     C          0.598939  
         C4        1.0000    0.72490   0.70430   0.16220   Biso      1.000     C          -0.101149           
         C5        1.0000    0.68350   0.31350   0.45300   Biso      1.000     C          -0.017787           
         C6        1.0000    0.82030   0.78140   0.07250   Biso      1.000     C          -0.0071849999999999995        
         C7        1.0000    0.77890   0.76360   0.86330   Biso      1.000     C          -0.09700299999999999          
         C8        1.0000    0.71050   0.71610   0.80360   Biso      1.000     C          -0.096429           
         C9        1.0000    0.68350   0.68650   0.95300   Biso      1.000     C          -0.018754           
         C10       1.0000    0.77890   0.23640   0.36330   Biso      1.000     C          -0.09578099999999999          
         C11       1.0000    0.82030   0.21860   0.57250   Biso      1.000     C          -0.006717           
         C12       1.0000    0.79330   0.24830   0.72200   Biso      1.000     C          -0.09247000000000001          
         C13       1.0000    0.72490   0.29570   0.66220   Biso      1.000     C          -0.101125           
         C14       1.0000    0.18350   0.81350   0.45300   Biso      1.000     C          -0.018834           
         C15       1.0000    0.60890   0.36530   0.38780   Biso      1.000     C          0.600955  
         C16       1.0000    0.71050   0.28390   0.30360   Biso      1.000     C          -0.094205           
         C17       1.0000    0.21050   0.78390   0.30360   Biso      1.000     C          -0.096443           
         C18       1.0000    0.32030   0.71860   0.57250   Biso      1.000     C          -0.007104000000000001         
         C19       1.0000    0.29330   0.74830   0.72200   Biso      1.000     C          -0.091593           
         C20       1.0000    0.39500   0.33310   0.13780   Biso      1.000     C          0.597713  
         C21       1.0000    0.10890   0.13470   0.88780   Biso      1.000     C          0.6009979999999999  
         C22       1.0000    0.22490   0.20430   0.16220   Biso      1.000     C          -0.10114400000000001          
         C23       1.0000    0.29330   0.25170   0.22200   Biso      1.000     C          -0.092446           
         C24       1.0000    0.32030   0.28140   0.07250   Biso      1.000     C          -0.006640999999999999         
         C25       1.0000    0.27890   0.26360   0.86330   Biso      1.000     C          -0.09576799999999999          
         C26       1.0000    0.21050   0.21610   0.80360   Biso      1.000     C          -0.094233           
         C27       1.0000    0.18350   0.18650   0.95300   Biso      1.000     C          -0.017847           
         C28       1.0000    0.89500   0.16690   0.63780   Biso      1.000     C          0.597761  
         C29       1.0000    0.22490   0.79570   0.66220   Biso      1.000     C          -0.101149           
         C30       1.0000    0.10890   0.86530   0.38780   Biso      1.000     C          0.5989869999999999  
         C31       1.0000    0.39500   0.66690   0.63780   Biso      1.000     C          0.597754  
         C32       1.0000    0.27890   0.73640   0.36330   Biso      1.000     C          -0.096992           
         Fe1       1.0000    0.00500   0.98950   0.51470   Biso      1.000     Fe          1.111628  
         Fe2       1.0000    0.00500   0.01050   0.01470   Biso      1.000     Fe          1.215163  
         Fe3       1.0000    0.50500   0.48950   0.51470   Biso      1.000     Fe          1.215171  
         Fe4       1.0000    0.50500   0.51050   0.01470   Biso      1.000     Fe          1.111591  
         H1        1.0000    0.20570   0.81690   0.76910   Biso      1.000     H          0.122518  
         H2        1.0000    0.32300   0.73550   0.87160   Biso      1.000     H          0.12975599999999998           
         H3        1.0000    0.29820   0.71520   0.25640   Biso      1.000     H          0.12544   
         H4        1.0000    0.18090   0.79660   0.15390   Biso      1.000     H          0.125863  
         H5        1.0000    0.82300   0.23550   0.87160   Biso      1.000     H          0.12969   
         H6        1.0000    0.79820   0.21520   0.25640   Biso      1.000     H          0.12571500000000002           
         H7        1.0000    0.68090   0.29660   0.15390   Biso      1.000     H          0.126499  
         H8        1.0000    0.18090   0.20340   0.65390   Biso      1.000     H          0.12648099999999998           
         H9        1.0000    0.70570   0.68310   0.26910   Biso      1.000     H          0.12253299999999999           
         H10       1.0000    0.32300   0.26450   0.37160   Biso      1.000     H          0.129705  
         H11       1.0000    0.20570   0.18310   0.26910   Biso      1.000     H          0.122643  
         H12       1.0000    0.68090   0.70340   0.65390   Biso      1.000     H          0.125882  
         H13       1.0000    0.79820   0.78480   0.75640   Biso      1.000     H          0.12542799999999998           
         H14       1.0000    0.70570   0.31690   0.76910   Biso      1.000     H          0.12265699999999999           
         H15       1.0000    0.82300   0.76450   0.37160   Biso      1.000     H          0.129735  
         H16       1.0000    0.29820   0.28480   0.75640   Biso      1.000     H          0.125726  
         O1        1.0000    0.91850   0.13050   0.49910   Biso      1.000     O          -0.4835   
         O2        1.0000    0.93480   0.15920   0.83180   Biso      1.000     O          -0.489407           
         O3        1.0000    0.58530   0.40160   0.52640   Biso      1.000     O          -0.448825           
         O4        1.0000    0.50520   0.40330   0.76290   Biso      1.000     O          -0.5734560000000001           
         O5        1.0000    0.00520   0.09670   0.26290   Biso      1.000     O          -0.573328           
         O6        1.0000    0.43480   0.65920   0.83180   Biso      1.000     O          -0.48900699999999997          
         O7        1.0000    0.41850   0.63050   0.49910   Biso      1.000     O          -0.486997           
         O8        1.0000    0.08530   0.90160   0.52640   Biso      1.000     O          -0.443223           
         O9        1.0000    0.06900   0.87290   0.19370   Biso      1.000     O          -0.464404           
         O10       1.0000    0.93480   0.84080   0.33180   Biso      1.000     O          -0.48897299999999994          
         O11       1.0000    0.91850   0.86950   0.99910   Biso      1.000     O          -0.48696300000000003          
         O12       1.0000    0.58530   0.59840   0.02640   Biso      1.000     O          -0.443251           
         O13       1.0000    0.56900   0.62710   0.69370   Biso      1.000     O          -0.46443500000000004          
         O14       1.0000    0.00520   0.90330   0.76290   Biso      1.000     O          -0.568083           
         O15       1.0000    0.43480   0.34080   0.33180   Biso      1.000     O          -0.48944799999999994          
         O16       1.0000    0.41850   0.36950   0.99910   Biso      1.000     O          -0.483533           
         O17       1.0000    0.08530   0.09840   0.02640   Biso      1.000     O          -0.448797           
         O18       1.0000    0.06900   0.12710   0.69370   Biso      1.000     O          -0.46321899999999994          
         O19       1.0000    0.56900   0.37290   0.19370   Biso      1.000     O          -0.46324099999999996          
         O20       1.0000    0.50520   0.59670   0.26290   Biso      1.000     O          -0.568236 