
##########################################################################
#               Crystallographic Information Format file
#               Produced by PyCifRW module
#
#  This is a CIF file.  CIF has been adopted by the International
#  Union of Crystallography as the standard for data archiving and
#  transmission.
#
#  For information on this file format, follow the CIF links at
#  http://www.iucr.org
##########################################################################

data_image0

_cell_length_a                          6.9035
_cell_length_b                          15.9959
_cell_length_c                          14.3406
_cell_angle_alpha                       90
_cell_angle_beta                        90
_cell_angle_gamma                       90
_symmetry_space_group_name_H-M          'P 1'
_symmetry_int_tables_number             1
loop_
  _symmetry_equiv_pos_as_xyz
         'x, y, z' 
loop_
  _atom_site_label
  _atom_site_occupancy
  _atom_site_fract_x
  _atom_site_fract_y
  _atom_site_fract_z
  _atom_site_thermal_displace_type
  _atom_site_B_iso_or_equiv
  _atom_site_type_symbol
  _atom_site_charge
         C1        1.0000    0.82627   0.96782   0.53229   Biso      1.000     C          -0.10391199999999999          
         C2        1.0000    0.17373   0.53218   0.53229   Biso      1.000     C          -0.103897           
         C3        1.0000    0.67373   0.03218   0.03229   Biso      1.000     C          -0.10391099999999999          
         C4        1.0000    0.32627   0.53218   0.96771   Biso      1.000     C          -0.103913           
         C5        1.0000    0.82627   0.03218   0.46771   Biso      1.000     C          -0.103896           
         C6        1.0000    0.67373   0.96782   0.96771   Biso      1.000     C          -0.103894           
         C7        1.0000    0.17373   0.46782   0.46771   Biso      1.000     C          -0.10391099999999999          
         C8        1.0000    0.00000   0.56436   0.56459   Biso      1.000     C          -0.018425           
         C9        1.0000    0.00000   0.63268   0.63314   Biso      1.000     C          0.601577  
         C10       1.0000    0.32627   0.96782   0.96771   Biso      1.000     C          -0.103898           
         C11       1.0000    0.50000   0.06436   0.06459   Biso      1.000     C          -0.018346           
         C12       1.0000    0.32627   0.46782   0.03229   Biso      1.000     C          -0.103898           
         C13       1.0000    0.82627   0.46782   0.46771   Biso      1.000     C          -0.10391099999999999          
         C14       1.0000    0.00000   0.93564   0.56459   Biso      1.000     C          -0.018349           
         C15       1.0000    0.00000   0.86732   0.63314   Biso      1.000     C          0.601549  
         C16       1.0000    0.67373   0.53218   0.96771   Biso      1.000     C          -0.10391199999999999          
         C17       1.0000    0.50000   0.13268   0.13314   Biso      1.000     C          0.60155   
         C18       1.0000    0.50000   0.36732   0.13314   Biso      1.000     C          0.601576  
         C19       1.0000    0.17373   0.03218   0.46771   Biso      1.000     C          -0.103901           
         C20       1.0000    0.00000   0.06436   0.43541   Biso      1.000     C          -0.018425           
         C21       1.0000    0.00000   0.13268   0.36686   Biso      1.000     C          0.601576  
         C22       1.0000    0.67373   0.46782   0.03229   Biso      1.000     C          -0.103896           
         C23       1.0000    0.50000   0.56436   0.93541   Biso      1.000     C          -0.018348           
         C24       1.0000    0.50000   0.63268   0.86686   Biso      1.000     C          0.601549  
         C25       1.0000    0.17373   0.96782   0.53229   Biso      1.000     C          -0.10390999999999999          
         C26       1.0000    0.00000   0.43564   0.43541   Biso      1.000     C          -0.018345           
         C27       1.0000    0.82627   0.53218   0.53229   Biso      1.000     C          -0.10389300000000001          
         C28       1.0000    0.50000   0.86732   0.86686   Biso      1.000     C          0.601577  
         C29       1.0000    0.00000   0.36732   0.36686   Biso      1.000     C          0.6015510000000001  
         C30       1.0000    0.50000   0.43564   0.06459   Biso      1.000     C          -0.018425           
         C31       1.0000    0.50000   0.93564   0.93541   Biso      1.000     C          -0.018424           
         C32       1.0000    0.32627   0.03218   0.03229   Biso      1.000     C          -0.10391099999999999          
         Fe1       1.0000    0.25000   0.25000   0.25000   Biso      1.000     Fe          1.111839  
         Fe2       1.0000    0.75000   0.25000   0.25000   Biso      1.000     Fe          1.111801  
         Fe3       1.0000    0.25000   0.75000   0.75000   Biso      1.000     Fe          1.1118629999999998  
         Fe4       1.0000    0.75000   0.75000   0.75000   Biso      1.000     Fe          1.111804  
         H1        1.0000    0.50000   0.75000   0.61785   Biso      1.000     H          0.41228400000000004           
         H2        1.0000    0.00000   0.75000   0.88215   Biso      1.000     H          0.41228400000000004           
         H3        1.0000    0.50000   0.25000   0.38215   Biso      1.000     H          0.41228100000000006           
         H4        1.0000    0.79666   0.05495   0.05515   Biso      1.000     H          0.124819  
         H5        1.0000    0.00000   0.25000   0.11785   Biso      1.000     H          0.41228100000000006           
         H6        1.0000    0.29666   0.55495   0.55515   Biso      1.000     H          0.12481500000000001           
         H7        1.0000    0.70334   0.55495   0.55515   Biso      1.000     H          0.12481500000000001           
         H8        1.0000    0.20334   0.44505   0.05515   Biso      1.000     H          0.12481400000000001           
         H9        1.0000    0.70334   0.44505   0.44485   Biso      1.000     H          0.124819  
         H10       1.0000    0.29666   0.05495   0.44485   Biso      1.000     H          0.12481500000000001           
         H11       1.0000    0.20334   0.94505   0.94485   Biso      1.000     H          0.12481500000000001           
         H12       1.0000    0.29666   0.44505   0.44485   Biso      1.000     H          0.124819  
         H13       1.0000    0.79666   0.44505   0.05515   Biso      1.000     H          0.12481400000000001           
         H14       1.0000    0.79666   0.94505   0.94485   Biso      1.000     H          0.12481500000000001           
         H15       1.0000    0.29666   0.94505   0.55515   Biso      1.000     H          0.124819  
         H16       1.0000    0.70334   0.05495   0.44485   Biso      1.000     H          0.12481400000000001           
         H17       1.0000    0.70334   0.94505   0.55515   Biso      1.000     H          0.124819  
         H18       1.0000    0.20334   0.05495   0.05515   Biso      1.000     H          0.124819  
         H19       1.0000    0.20334   0.55495   0.94485   Biso      1.000     H          0.124819  
         H20       1.0000    0.79666   0.55495   0.94485   Biso      1.000     H          0.124819  
         O1        1.0000    0.15918   0.16219   0.33724   Biso      1.000     O          -0.506468           
         O2        1.0000    0.15918   0.83781   0.66276   Biso      1.000     O          -0.506634           
         O3        1.0000    0.34082   0.16219   0.16276   Biso      1.000     O          -0.506627           
         O4        1.0000    0.65918   0.33781   0.16276   Biso      1.000     O          -0.506491           
         O5        1.0000    0.84082   0.66219   0.66276   Biso      1.000     O          -0.506484           
         O6        1.0000    0.50000   0.75000   0.68758   Biso      1.000     O          -0.747887           
         O7        1.0000    0.00000   0.25000   0.18758   Biso      1.000     O          -0.747871           
         O8        1.0000    0.84082   0.33781   0.33724   Biso      1.000     O          -0.506649           
         O9        1.0000    0.34082   0.33781   0.16276   Biso      1.000     O          -0.506468           
         O10       1.0000    0.34082   0.83781   0.83724   Biso      1.000     O          -0.506471           
         O11       1.0000    0.15918   0.33781   0.33724   Biso      1.000     O          -0.506627           
         O12       1.0000    0.65918   0.83781   0.83724   Biso      1.000     O          -0.506484           
         O13       1.0000    0.84082   0.16219   0.33724   Biso      1.000     O          -0.506491           
         O14       1.0000    0.34082   0.66219   0.83724   Biso      1.000     O          -0.506634           
         O15       1.0000    0.65918   0.16219   0.16276   Biso      1.000     O          -0.506649           
         O16       1.0000    0.50000   0.25000   0.31242   Biso      1.000     O          -0.747871           
         O17       1.0000    0.84082   0.83781   0.66276   Biso      1.000     O          -0.506646           
         O18       1.0000    0.15918   0.66219   0.66276   Biso      1.000     O          -0.506471           
         O19       1.0000    0.65918   0.66219   0.83724   Biso      1.000     O          -0.5066470000000001           
         O20       1.0000    0.00000   0.75000   0.81242   Biso      1.000     O          -0.747887 