
##########################################################################
#               Crystallographic Information Format file
#               Produced by PyCifRW module
#
#  This is a CIF file.  CIF has been adopted by the International
#  Union of Crystallography as the standard for data archiving and
#  transmission.
#
#  For information on this file format, follow the CIF links at
#  http://www.iucr.org
##########################################################################

data_image0

_cell_length_a                          20.5266
_cell_length_b                          9.1925
_cell_length_c                          6.8763
_cell_angle_alpha                       90
_cell_angle_beta                        113.084
_cell_angle_gamma                       90
_symmetry_space_group_name_H-M          'P 1'
_symmetry_int_tables_number             1
loop_
  _symmetry_equiv_pos_as_xyz
         'x, y, z' 
loop_
  _atom_site_label
  _atom_site_occupancy
  _atom_site_fract_x
  _atom_site_fract_y
  _atom_site_fract_z
  _atom_site_thermal_displace_type
  _atom_site_B_iso_or_equiv
  _atom_site_type_symbol
  _atom_site_charge
         C1        1.0000    0.78700   0.74700   0.16460   Biso      1.000     C          -0.091533           
         C2        1.0000    0.88740   0.82870   0.07880   Biso      1.000     C          0.5977180000000001  
         C3        1.0000    0.60210   0.63370   0.83040   Biso      1.000     C          0.601186  
         C4        1.0000    0.71850   0.70020   0.10500   Biso      1.000     C          -0.101621           
         C5        1.0000    0.67630   0.31560   0.39500   Biso      1.000     C          -0.017041           
         C6        1.0000    0.81320   0.77800   0.01420   Biso      1.000     C          -0.007912           
         C7        1.0000    0.77100   0.76220   0.80420   Biso      1.000     C          -0.096804           
         C8        1.0000    0.70250   0.71540   0.74460   Biso      1.000     C          -0.095317           
         C9        1.0000    0.67630   0.68440   0.89500   Biso      1.000     C          -0.015621000000000001         
         C10       1.0000    0.77100   0.23780   0.30420   Biso      1.000     C          -0.09753300000000001          
         C11       1.0000    0.81320   0.22200   0.51420   Biso      1.000     C          -0.007495           
         C12       1.0000    0.78700   0.25300   0.66460   Biso      1.000     C          -0.090225           
         C13       1.0000    0.71850   0.29980   0.60500   Biso      1.000     C          -0.10051399999999999          
         C14       1.0000    0.17630   0.81560   0.39500   Biso      1.000     C          -0.01569  
         C15       1.0000    0.60210   0.36630   0.33040   Biso      1.000     C          0.600767  
         C16       1.0000    0.70250   0.28460   0.24460   Biso      1.000     C          -0.096552           
         C17       1.0000    0.20250   0.78460   0.24460   Biso      1.000     C          -0.095326           
         C18       1.0000    0.31320   0.72200   0.51420   Biso      1.000     C          -0.007855           
         C19       1.0000    0.28700   0.75300   0.66460   Biso      1.000     C          -0.091517           
         C20       1.0000    0.38740   0.32870   0.07880   Biso      1.000     C          0.5977399999999999  
         C21       1.0000    0.10210   0.13370   0.83040   Biso      1.000     C          0.600784  
         C22       1.0000    0.21850   0.20020   0.10500   Biso      1.000     C          -0.100533           
         C23       1.0000    0.28700   0.24700   0.16460   Biso      1.000     C          -0.090212           
         C24       1.0000    0.31320   0.27800   0.01420   Biso      1.000     C          -0.007436           
         C25       1.0000    0.27100   0.26220   0.80420   Biso      1.000     C          -0.09752999999999999          
         C26       1.0000    0.20250   0.21540   0.74460   Biso      1.000     C          -0.096571           
         C27       1.0000    0.17630   0.18440   0.89500   Biso      1.000     C          -0.017088           
         C28       1.0000    0.88740   0.17130   0.57880   Biso      1.000     C          0.597755  
         C29       1.0000    0.21850   0.79980   0.60500   Biso      1.000     C          -0.101607           
         C30       1.0000    0.10210   0.86630   0.33040   Biso      1.000     C          0.6012029999999999  
         C31       1.0000    0.38740   0.67130   0.57880   Biso      1.000     C          0.597709  
         C32       1.0000    0.27100   0.73780   0.30420   Biso      1.000     C          -0.09679  
         Fe1       1.0000    0.99590   0.99470   0.46120   Biso      1.000     Fe          1.202165  
         Fe2       1.0000    0.99590   0.00530   0.96120   Biso      1.000     Fe          1.100293  
         Fe3       1.0000    0.49590   0.49470   0.46120   Biso      1.000     Fe          1.1003049999999999  
         Fe4       1.0000    0.49590   0.50530   0.96120   Biso      1.000     Fe          1.202421  
         H1        1.0000    0.19980   0.82200   0.71260   Biso      1.000     H          0.122749  
         H2        1.0000    0.31730   0.74170   0.81490   Biso      1.000     H          0.12928900000000002           
         H3        1.0000    0.28970   0.71570   0.19660   Biso      1.000     H          0.125638  
         H4        1.0000    0.17230   0.79590   0.09440   Biso      1.000     H          0.127497  
         H5        1.0000    0.81730   0.24170   0.81490   Biso      1.000     H          0.12953499999999998           
         H6        1.0000    0.78970   0.21570   0.19660   Biso      1.000     H          0.125486  
         H7        1.0000    0.67230   0.29590   0.09440   Biso      1.000     H          0.12700799999999998           
         H8        1.0000    0.17230   0.20410   0.59440   Biso      1.000     H          0.12699000000000002           
         H9        1.0000    0.69980   0.67800   0.21260   Biso      1.000     H          0.12275599999999999           
         H10       1.0000    0.31730   0.25830   0.31490   Biso      1.000     H          0.129546  
         H11       1.0000    0.19980   0.17800   0.21260   Biso      1.000     H          0.122767  
         H12       1.0000    0.67230   0.70410   0.59440   Biso      1.000     H          0.12750999999999998           
         H13       1.0000    0.78970   0.78430   0.69660   Biso      1.000     H          0.12563   
         H14       1.0000    0.69980   0.32200   0.71260   Biso      1.000     H          0.122776  
         H15       1.0000    0.81730   0.75830   0.31490   Biso      1.000     H          0.129272  
         H16       1.0000    0.28970   0.28430   0.69660   Biso      1.000     H          0.12549100000000002           
         O1        1.0000    0.91060   0.13490   0.43940   Biso      1.000     O          -0.48128999999999994          
         O2        1.0000    0.92780   0.16440   0.77350   Biso      1.000     O          -0.493497           
         O3        1.0000    0.57900   0.40270   0.46980   Biso      1.000     O          -0.44646  
         O4        1.0000    0.49680   0.40310   0.70300   Biso      1.000     O          -0.563793           
         O5        1.0000    0.99680   0.09690   0.20300   Biso      1.000     O          -0.563528           
         O6        1.0000    0.42780   0.66440   0.77350   Biso      1.000     O          -0.49361700000000003          
         O7        1.0000    0.41060   0.63490   0.43940   Biso      1.000     O          -0.477761           
         O8        1.0000    0.07900   0.90270   0.46980   Biso      1.000     O          -0.45324  
         O9        1.0000    0.06170   0.87330   0.13570   Biso      1.000     O          -0.457171           
         O10       1.0000    0.92780   0.83560   0.27350   Biso      1.000     O          -0.49359200000000003          
         O11       1.0000    0.91060   0.86510   0.93940   Biso      1.000     O          -0.477733           
         O12       1.0000    0.57900   0.59730   0.96980   Biso      1.000     O          -0.453287           
         O13       1.0000    0.56170   0.62670   0.63570   Biso      1.000     O          -0.45723  
         O14       1.0000    0.99680   0.90310   0.70300   Biso      1.000     O          -0.5705640000000001           
         O15       1.0000    0.42780   0.33560   0.27350   Biso      1.000     O          -0.49355299999999996          
         O16       1.0000    0.41060   0.36510   0.93940   Biso      1.000     O          -0.48134  
         O17       1.0000    0.07900   0.09730   0.96980   Biso      1.000     O          -0.44644700000000004          
         O18       1.0000    0.06170   0.12670   0.63570   Biso      1.000     O          -0.45437299999999997          
         O19       1.0000    0.56170   0.37330   0.13570   Biso      1.000     O          -0.45438999999999996          
         O20       1.0000    0.49680   0.59690   0.20300   Biso      1.000     O          -0.5707949999999999 