
##########################################################################
#               Crystallographic Information Format file
#               Produced by PyCifRW module
#
#  This is a CIF file.  CIF has been adopted by the International
#  Union of Crystallography as the standard for data archiving and
#  transmission.
#
#  For information on this file format, follow the CIF links at
#  http://www.iucr.org
##########################################################################

data_image0

_cell_length_a                          14.6462
_cell_length_b                          16.7824
_cell_length_c                          16.7824
_cell_angle_alpha                       120
_cell_angle_beta                        90
_cell_angle_gamma                       90
_symmetry_space_group_name_H-M          'P 1'
_symmetry_int_tables_number             1
loop_
  _symmetry_equiv_pos_as_xyz
         'x, y, z' 
loop_
  _atom_site_label
  _atom_site_occupancy
  _atom_site_fract_x
  _atom_site_fract_y
  _atom_site_fract_z
  _atom_site_thermal_displace_type
  _atom_site_B_iso_or_equiv
  _atom_site_type_symbol
  _atom_site_charge
         C1        1.0000    0.50000   0.59360   0.00000   Biso      1.000     C          -0.027151           
         C2        1.0000    0.71770   0.00000   0.19540   Biso      1.000     C          0.012766  
         C3        1.0000    0.62980   0.00000   0.14860   Biso      1.000     C          0.616712  
         C4        1.0000    0.71770   0.80460   0.80460   Biso      1.000     C          0.012765  
         C5        1.0000    0.62980   0.85140   0.85140   Biso      1.000     C          0.616711  
         C6        1.0000    0.71770   0.19540   0.00000   Biso      1.000     C          0.008569  
         C7        1.0000    0.62980   0.14860   0.00000   Biso      1.000     C          0.603216  
         C8        1.0000    0.28230   0.00000   0.19540   Biso      1.000     C          0.012766  
         C9        1.0000    0.37020   0.00000   0.14860   Biso      1.000     C          0.616712  
         C10       1.0000    0.28230   0.80460   0.80460   Biso      1.000     C          0.012765  
         C11       1.0000    0.37020   0.85140   0.85140   Biso      1.000     C          0.616711  
         C12       1.0000    0.28230   0.19540   0.00000   Biso      1.000     C          0.008569  
         C13       1.0000    0.37020   0.14860   0.00000   Biso      1.000     C          0.603216  
         C14       1.0000    0.00000   0.47860   0.18270   Biso      1.000     C          0.57485   
         C15       1.0000    0.50000   0.40640   0.40640   Biso      1.000     C          -0.029854           
         C16       1.0000    0.14950   0.72110   0.79730   Biso      1.000     C          0.077622  
         C17       1.0000    0.25050   0.73030   0.80880   Biso      1.000     C          -0.153895           
         C18       1.0000    0.14950   0.07620   0.27890   Biso      1.000     C          0.076472  
         C19       1.0000    0.25050   0.07850   0.26970   Biso      1.000     C          -0.150847           
         C20       1.0000    0.14950   0.20270   0.92380   Biso      1.000     C          0.071455  
         C21       1.0000    0.85050   0.72110   0.79730   Biso      1.000     C          0.077622  
         C22       1.0000    0.74950   0.73030   0.80880   Biso      1.000     C          -0.153895           
         C23       1.0000    0.85050   0.07620   0.27890   Biso      1.000     C          0.076471  
         C24       1.0000    0.74950   0.07850   0.26970   Biso      1.000     C          -0.150847           
         C25       1.0000    0.85050   0.20270   0.92380   Biso      1.000     C          0.071454  
         C26       1.0000    0.74950   0.19120   0.92150   Biso      1.000     C          -0.158902           
         C27       1.0000    0.85050   0.92380   0.20270   Biso      1.000     C          0.077621  
         C28       1.0000    0.50000   0.00000   0.59360   Biso      1.000     C          -0.029855           
         C29       1.0000    0.74950   0.92150   0.19120   Biso      1.000     C          -0.153897           
         C30       1.0000    0.00000   0.57640   0.25950   Biso      1.000     C          -0.031245           
         C31       1.0000    0.00000   0.70410   0.52140   Biso      1.000     C          0.57526   
         C32       1.0000    0.50000   0.92030   0.59340   Biso      1.000     C          -0.12626  
         C33       1.0000    0.50000   0.91900   0.67890   Biso      1.000     C          0.077972  
         C34       1.0000    0.50000   0.67310   0.07970   Biso      1.000     C          -0.124173           
         C35       1.0000    0.50000   0.75990   0.08100   Biso      1.000     C          0.08039   
         C36       1.0000    0.50000   0.40660   0.32690   Biso      1.000     C          -0.125442           
         C37       1.0000    0.50000   0.32110   0.24010   Biso      1.000     C          0.083069  
         C38       1.0000    0.50000   0.32690   0.40660   Biso      1.000     C          -0.126259           
         C39       1.0000    0.50000   0.24010   0.32110   Biso      1.000     C          0.077973  
         C40       1.0000    0.50000   0.59340   0.92030   Biso      1.000     C          -0.124176           
         C41       1.0000    0.50000   0.67890   0.91900   Biso      1.000     C          0.080388  
         C42       1.0000    0.50000   0.07970   0.67310   Biso      1.000     C          -0.12544  
         C43       1.0000    0.50000   0.08100   0.75990   Biso      1.000     C          0.08307   
         C44       1.0000    0.00000   0.64910   0.24280   Biso      1.000     C          -0.131121           
         C45       1.0000    0.00000   0.35090   0.59370   Biso      1.000     C          -0.131709           
         C46       1.0000    0.00000   0.52140   0.70410   Biso      1.000     C          0.575456  
         C47       1.0000    0.00000   0.24280   0.64910   Biso      1.000     C          -0.130654           
         C48       1.0000    0.00000   0.25950   0.57640   Biso      1.000     C          -0.033263           
         C49       1.0000    0.00000   0.18270   0.47860   Biso      1.000     C          0.575261  
         C50       1.0000    0.00000   0.40630   0.75720   Biso      1.000     C          -0.131122           
         C51       1.0000    0.00000   0.31690   0.74050   Biso      1.000     C          -0.031246           
         C52       1.0000    0.00000   0.29590   0.81730   Biso      1.000     C          0.574849  
         C53       1.0000    0.00000   0.75720   0.40630   Biso      1.000     C          -0.131713           
         C54       1.0000    0.00000   0.74050   0.31690   Biso      1.000     C          -0.033419           
         C55       1.0000    0.00000   0.81730   0.29590   Biso      1.000     C          0.575456  
         C56       1.0000    0.00000   0.59370   0.35090   Biso      1.000     C          -0.130652           
         C57       1.0000    0.00000   0.68310   0.42360   Biso      1.000     C          -0.033262           
         C58       1.0000    0.00000   0.42360   0.68310   Biso      1.000     C          -0.033418           
         C59       1.0000    0.85050   0.79730   0.72110   Biso      1.000     C          0.076471  
         C60       1.0000    0.25050   0.19120   0.92150   Biso      1.000     C          -0.158902           
         C61       1.0000    0.85050   0.27890   0.07620   Biso      1.000     C          0.071456  
         C62       1.0000    0.74950   0.26970   0.07850   Biso      1.000     C          -0.1589   
         C63       1.0000    0.14950   0.92380   0.20270   Biso      1.000     C          0.077621  
         C64       1.0000    0.25050   0.92150   0.19120   Biso      1.000     C          -0.153897           
         C65       1.0000    0.14950   0.79730   0.72110   Biso      1.000     C          0.076471  
         C66       1.0000    0.25050   0.80880   0.73030   Biso      1.000     C          -0.150846           
         C67       1.0000    0.14950   0.27890   0.07620   Biso      1.000     C          0.071456  
         C68       1.0000    0.25050   0.26970   0.07850   Biso      1.000     C          -0.1589   
         C69       1.0000    0.74950   0.80880   0.73030   Biso      1.000     C          -0.150846           
         Cr1       1.0000    0.50000   0.11430   0.11430   Biso      1.000     Cr          1.403594  
         Cr2       1.0000    0.50000   0.00000   0.88570   Biso      1.000     Cr          1.403583  
         Cr3       1.0000    0.50000   0.88570   0.00000   Biso      1.000     Cr          1.426107  
         H1        1.0000    0.88530   0.86960   0.17930   Biso      1.000     H          0.122811  
         H2        1.0000    0.11470   0.17930   0.86960   Biso      1.000     H          0.12101   
         H3        1.0000    0.28450   0.16160   0.86680   Biso      1.000     H          0.127043  
         H4        1.0000    0.88530   0.69030   0.82070   Biso      1.000     H          0.122811  
         H5        1.0000    0.71550   0.70520   0.83840   Biso      1.000     H          0.128639  
         H6        1.0000    0.71550   0.13320   0.29480   Biso      1.000     H          0.129467  
         H7        1.0000    0.88530   0.17930   0.86960   Biso      1.000     H          0.12101   
         H8        1.0000    0.71550   0.16160   0.86680   Biso      1.000     H          0.127043  
         H9        1.0000    0.71550   0.86680   0.16160   Biso      1.000     H          0.128639  
         H10       1.0000    0.11470   0.86960   0.17930   Biso      1.000     H          0.122811  
         H11       1.0000    0.71550   0.83840   0.70520   Biso      1.000     H          0.129469  
         H12       1.0000    0.88530   0.30970   0.13040   Biso      1.000     H          0.12101   
         H13       1.0000    0.71550   0.29480   0.13320   Biso      1.000     H          0.127041  
         H14       1.0000    0.28450   0.13320   0.29480   Biso      1.000     H          0.129466  
         H15       1.0000    0.28450   0.86680   0.16160   Biso      1.000     H          0.128639  
         H16       1.0000    0.11470   0.82070   0.69030   Biso      1.000     H          0.123129  
         H17       1.0000    0.28450   0.83840   0.70520   Biso      1.000     H          0.129469  
         H18       1.0000    0.11470   0.30970   0.13040   Biso      1.000     H          0.12101   
         H19       1.0000    0.28450   0.29480   0.13320   Biso      1.000     H          0.127041  
         H20       1.0000    0.88530   0.82070   0.69030   Biso      1.000     H          0.123129  
         H21       1.0000    0.11470   0.13040   0.30970   Biso      1.000     H          0.12313   
         H22       1.0000    0.88530   0.13040   0.30970   Biso      1.000     H          0.12313   
         H23       1.0000    0.11470   0.69030   0.82070   Biso      1.000     H          0.122811  
         H24       1.0000    0.50000   0.86460   0.53720   Biso      1.000     H          0.122137  
         H25       1.0000    0.28450   0.70520   0.83840   Biso      1.000     H          0.12864   
         H26       1.0000    0.50000   0.86260   0.67800   Biso      1.000     H          0.10729   
         H27       1.0000    0.50000   0.67260   0.13540   Biso      1.000     H          0.123255  
         H28       1.0000    0.50000   0.81540   0.13740   Biso      1.000     H          0.108033  
         H29       1.0000    0.50000   0.32200   0.18460   Biso      1.000     H          0.109166  
         H30       1.0000    0.50000   0.32740   0.46280   Biso      1.000     H          0.122143  
         H31       1.0000    0.50000   0.18460   0.32200   Biso      1.000     H          0.107288  
         H32       1.0000    0.50000   0.53720   0.86460   Biso      1.000     H          0.123257  
         H33       1.0000    0.50000   0.67800   0.86260   Biso      1.000     H          0.108037  
         H34       1.0000    0.50000   0.46280   0.32740   Biso      1.000     H          0.122514  
         H35       1.0000    0.50000   0.13740   0.81540   Biso      1.000     H          0.109165  
         H36       1.0000    0.50000   0.13540   0.67260   Biso      1.000     H          0.122506  
         H37       1.0000    0.50000   0.00000   0.53760   Biso      1.000     H          0.115178  
         H38       1.0000    0.50000   0.53760   0.00000   Biso      1.000     H          0.116825  
         H39       1.0000    0.00000   0.63760   0.18190   Biso      1.000     H          0.127244  
         H40       1.0000    0.00000   0.54430   0.36240   Biso      1.000     H          0.127349  
         H41       1.0000    0.50000   0.46240   0.46240   Biso      1.000     H          0.115193  
         H42       1.0000    0.00000   0.81810   0.45570   Biso      1.000     H          0.127211  
         H43       1.0000    0.00000   0.45570   0.81810   Biso      1.000     H          0.127244  
         H44       1.0000    0.00000   0.18190   0.63760   Biso      1.000     H          0.127351  
         H45       1.0000    0.00000   0.36240   0.54430   Biso      1.000     H          0.12721   
         N1        1.0000    0.11780   0.72430   0.72430   Biso      1.000     N          -0.21005  
         N2        1.0000    0.88220   0.00000   0.27570   Biso      1.000     N          -0.210048           
         N3        1.0000    0.88220   0.27570   0.00000   Biso      1.000     N          -0.214471           
         N4        1.0000    0.50000   0.00000   0.76140   Biso      1.000     N          -0.247074           
         N5        1.0000    0.50000   0.76140   0.00000   Biso      1.000     N          -0.250867           
         N6        1.0000    0.50000   0.23860   0.23860   Biso      1.000     N          -0.247072           
         N7        1.0000    0.11780   0.27570   0.00000   Biso      1.000     N          -0.21447  
         N8        1.0000    0.88220   0.72430   0.72430   Biso      1.000     N          -0.21005  
         N9        1.0000    0.11780   0.00000   0.27570   Biso      1.000     N          -0.210048           
         O1        1.0000    0.00000   0.41522   0.19912   Biso      1.000     O          -0.588103           
         O2        1.0000    0.00000   0.78390   0.58478   Biso      1.000     O          -0.589635           
         O3        1.0000    0.50000   0.00000   0.00000   Biso      1.000     O          -1.057755           
         O4        1.0000    0.00000   0.46800   0.10220   Biso      1.000     O          -0.546902           
         O5        1.0000    0.00000   0.63420   0.53200   Biso      1.000     O          -0.545837           
         O6        1.0000    0.40259   0.90730   0.83073   Biso      1.000     O          -0.573111           
         O7        1.0000    0.00000   0.89780   0.36580   Biso      1.000     O          -0.545956           
         O8        1.0000    0.00000   0.21610   0.80088   Biso      1.000     O          -0.588102           
         O9        1.0000    0.00000   0.10220   0.46800   Biso      1.000     O          -0.545837           
         O10       1.0000    0.00000   0.19912   0.41522   Biso      1.000     O          -0.589634           
         O11       1.0000    0.00000   0.36580   0.89780   Biso      1.000     O          -0.546901           
         O12       1.0000    0.00000   0.80088   0.21610   Biso      1.000     O          -0.59004  
         O13       1.0000    0.40259   0.92343   0.09270   Biso      1.000     O          -0.579875           
         O14       1.0000    0.00000   0.53200   0.63420   Biso      1.000     O          -0.545957           
         O15       1.0000    0.59741   0.90730   0.83073   Biso      1.000     O          -0.573111           
         O16       1.0000    0.59741   0.92343   0.09270   Biso      1.000     O          -0.579875           
         O17       1.0000    0.59741   0.16927   0.07657   Biso      1.000     O          -0.580612           
         O18       1.0000    0.59741   0.07657   0.16927   Biso      1.000     O          -0.573115           
         O19       1.0000    0.59741   0.83073   0.90730   Biso      1.000     O          -0.579879           
         O20       1.0000    0.59741   0.09270   0.92343   Biso      1.000     O          -0.580608           
         O21       1.0000    0.40259   0.07657   0.16927   Biso      1.000     O          -0.573115           
         O22       1.0000    0.40259   0.83073   0.90730   Biso      1.000     O          -0.579879           
         O23       1.0000    0.40259   0.09270   0.92343   Biso      1.000     O          -0.580608           
         O24       1.0000    0.00000   0.58478   0.78390   Biso      1.000     O          -0.590042           
         O25       1.0000    0.40259   0.16927   0.07657   Biso      1.000     O          -0.580612           
         Zn1       1.0000    0.00000   0.00000   0.34167   Biso      1.000     Zn          0.726219  
         Zn2       1.0000    0.00000   0.65833   0.65833   Biso      1.000     Zn          0.726215  
         Zn3       1.0000    0.00000   0.34167   0.00000   Biso      1.000     Zn          0.727877 