
##########################################################################
#               Crystallographic Information Format file
#               Produced by PyCifRW module
#
#  This is a CIF file.  CIF has been adopted by the International
#  Union of Crystallography as the standard for data archiving and
#  transmission.
#
#  For information on this file format, follow the CIF links at
#  http://www.iucr.org
##########################################################################

data_image0

_cell_length_a                          12.113
_cell_length_b                          12.226
_cell_length_c                          12.289
_cell_angle_alpha                       102.178
_cell_angle_beta                        100.545
_cell_angle_gamma                       119.663
_symmetry_space_group_name_H-M          'P 1'
_symmetry_int_tables_number             1
loop_
  _symmetry_equiv_pos_as_xyz
         'x, y, z' 
loop_
  _atom_site_label
  _atom_site_occupancy
  _atom_site_fract_x
  _atom_site_fract_y
  _atom_site_fract_z
  _atom_site_thermal_displace_type
  _atom_site_B_iso_or_equiv
  _atom_site_type_symbol
  _atom_site_charge
         C1        1.0000    0.10190   0.73840   0.42990   Biso      1.000     C          0.080429  
         C2        1.0000    0.98330   0.54220   0.10930   Biso      1.000     C          0.031844  
         C3        1.0000    0.04170   0.28310   0.94810   Biso      1.000     C          -0.164011           
         C4        1.0000    0.29930   0.42800   0.06460   Biso      1.000     C          0.028128  
         C5        1.0000    0.32070   0.26550   0.02930   Biso      1.000     C          0.109193  
         C6        1.0000    0.03880   0.39420   0.18140   Biso      1.000     C          -0.173078           
         C7        1.0000    0.90300   0.22570   0.27010   Biso      1.000     C          0.071736  
         C8        1.0000    0.72570   0.10510   0.13100   Biso      1.000     C          0.117211  
         C9        1.0000    0.96210   0.58330   0.22200   Biso      1.000     C          -0.164783           
         C10       1.0000    0.25750   0.88870   0.39550   Biso      1.000     C          0.156884  
         C11       1.0000    0.97050   0.59560   0.02240   Biso      1.000     C          0.019644  
         C12       1.0000    0.98560   0.55620   0.91460   Biso      1.000     C          0.025313  
         C13       1.0000    0.01670   0.45780   0.89070   Biso      1.000     C          0.031849  
         C14       1.0000    0.95830   0.71690   0.05190   Biso      1.000     C          -0.164017           
         C15       1.0000    0.70070   0.57200   0.93540   Biso      1.000     C          0.028148  
         C16       1.0000    0.67930   0.73450   0.97070   Biso      1.000     C          0.109196  
         C17       1.0000    0.96120   0.60580   0.81860   Biso      1.000     C          -0.173076           
         C18       1.0000    0.09700   0.77430   0.72990   Biso      1.000     C          0.071741  
         C19       1.0000    0.27430   0.89490   0.86900   Biso      1.000     C          0.117219  
         C20       1.0000    0.03790   0.41670   0.77800   Biso      1.000     C          -0.164785           
         C21       1.0000    0.89810   0.26160   0.57010   Biso      1.000     C          0.080435  
         C22       1.0000    0.74250   0.11130   0.60450   Biso      1.000     C          0.156899  
         C23       1.0000    0.01440   0.44380   0.08540   Biso      1.000     C          0.025311  
         C24       1.0000    0.02950   0.40440   0.97760   Biso      1.000     C          0.019651  
         Co1       1.0000    0.68803   0.99432   0.33610   Biso      1.000     Co          0.463931  
         Co2       1.0000    0.31197   0.00568   0.66390   Biso      1.000     Co          0.463205  
         H1        1.0000    0.68530   0.48700   0.90830   Biso      1.000     H          0.095653  
         H2        1.0000    0.00800   0.24000   0.86280   Biso      1.000     H          0.13553   
         H3        1.0000    0.98380   0.21870   0.97950   Biso      1.000     H          0.14113   
         H4        1.0000    0.31470   0.51300   0.09170   Biso      1.000     H          0.095647  
         H5        1.0000    0.36220   0.21870   0.02850   Biso      1.000     H          0.10369   
         H6        1.0000    0.10310   0.37060   0.17310   Biso      1.000     H          0.090555  
         H7        1.0000    0.08000   0.46710   0.25670   Biso      1.000     H          0.090527  
         H8        1.0000    0.97100   0.26310   0.34240   Biso      1.000     H          0.097301  
         H9        1.0000    0.63780   0.03410   0.08490   Biso      1.000     H          0.101404  
         H10       1.0000    0.92570   0.50740   0.24880   Biso      1.000     H          0.099204  
         H11       1.0000    0.89490   0.60470   0.20680   Biso      1.000     H          0.094934  
         H12       1.0000    0.63780   0.78130   0.97150   Biso      1.000     H          0.103689  
         H13       1.0000    0.33610   0.96950   0.40670   Biso      1.000     H          0.123831  
         H14       1.0000    0.99200   0.76000   0.13720   Biso      1.000     H          0.135526  
         H15       1.0000    0.01620   0.78130   0.02050   Biso      1.000     H          0.141132  
         H16       1.0000    0.66390   0.03050   0.59330   Biso      1.000     H          0.123822  
         H17       1.0000    0.95560   0.31210   0.53410   Biso      1.000     H          0.064007  
         H18       1.0000    0.10510   0.39530   0.79320   Biso      1.000     H          0.094905  
         H19       1.0000    0.04440   0.68790   0.46590   Biso      1.000     H          0.064022  
         H20       1.0000    0.07430   0.49260   0.75120   Biso      1.000     H          0.09921   
         H21       1.0000    0.36220   0.96590   0.91510   Biso      1.000     H          0.101421  
         H22       1.0000    0.02900   0.73690   0.65760   Biso      1.000     H          0.097307  
         H23       1.0000    0.92000   0.53290   0.74330   Biso      1.000     H          0.090525  
         H24       1.0000    0.89690   0.62940   0.82690   Biso      1.000     H          0.090558  
         Mo1       1.0000    0.59832   0.51295   0.21558   Biso      1.000     Mo          0.772978  
         Mo2       1.0000    0.38993   0.37824   0.36334   Biso      1.000     Mo          1.426594  
         Mo3       1.0000    0.46054   0.68370   0.40733   Biso      1.000     Mo          1.432289  
         Mo4       1.0000    0.40168   0.48705   0.78442   Biso      1.000     Mo          0.772958  
         Mo5       1.0000    0.61007   0.62176   0.63666   Biso      1.000     Mo          1.42652   
         Mo6       1.0000    0.53946   0.31630   0.59267   Biso      1.000     Mo          1.432267  
         Mo7       1.0000    0.70619   0.41867   0.41317   Biso      1.000     Mo          0.811729  
         Mo8       1.0000    0.29381   0.58133   0.58683   Biso      1.000     Mo          0.811797  
         N1        1.0000    0.82100   0.68590   0.00620   Biso      1.000     N          0.118424  
         N2        1.0000    0.91880   0.30330   0.68420   Biso      1.000     N          0.153684  
         N3        1.0000    0.78770   0.14130   0.51250   Biso      1.000     N          -0.281172           
         N4        1.0000    0.19970   0.80160   0.90790   Biso      1.000     N          -0.252801           
         N5        1.0000    0.08340   0.72390   0.81520   Biso      1.000     N          0.151342  
         N6        1.0000    0.21680   0.88240   0.75860   Biso      1.000     N          -0.305271           
         N7        1.0000    0.81920   0.20580   0.70840   Biso      1.000     N          -0.281016           
         N8        1.0000    0.80730   0.79340   0.02620   Biso      1.000     N          -0.261716           
         N9        1.0000    0.60990   0.59920   0.91100   Biso      1.000     N          -0.341161           
         N10       1.0000    0.80030   0.19840   0.09210   Biso      1.000     N          -0.252779           
         N11       1.0000    0.08120   0.69670   0.31580   Biso      1.000     N          0.153683  
         N12       1.0000    0.21230   0.85870   0.48750   Biso      1.000     N          -0.281054           
         N13       1.0000    0.91660   0.27610   0.18480   Biso      1.000     N          0.151336  
         N14       1.0000    0.78320   0.11760   0.24140   Biso      1.000     N          -0.305408           
         N15       1.0000    0.19270   0.20660   0.97380   Biso      1.000     N          -0.2617   
         N16       1.0000    0.17900   0.31410   0.99380   Biso      1.000     N          0.118426  
         N17       1.0000    0.39010   0.40080   0.08900   Biso      1.000     N          -0.341168           
         N18       1.0000    0.18080   0.79420   0.29160   Biso      1.000     N          -0.28104  
         O1        1.0000    0.60760   0.48420   0.52060   Biso      1.000     O          -0.798751           
         O2        1.0000    0.64310   0.73740   0.56310   Biso      1.000     O          -0.617716           
         O3        1.0000    0.50200   0.43960   0.67360   Biso      1.000     O          -0.78312  
         O4        1.0000    0.49980   0.64900   0.71540   Biso      1.000     O          -0.699442           
         O5        1.0000    0.26140   0.43350   0.64750   Biso      1.000     O          -0.67652  
         O6        1.0000    0.40600   0.73030   0.53900   Biso      1.000     O          -0.745223           
         O7        1.0000    0.49800   0.56040   0.32640   Biso      1.000     O          -0.78311  
         O8        1.0000    0.39240   0.51580   0.47940   Biso      1.000     O          -0.798755           
         O9        1.0000    0.35690   0.26260   0.43690   Biso      1.000     O          -0.617744           
         O10       1.0000    0.50020   0.35100   0.28460   Biso      1.000     O          -0.699496           
         O11       1.0000    0.73860   0.56650   0.35250   Biso      1.000     O          -0.676486           
         O12       1.0000    0.42160   0.16250   0.59800   Biso      1.000     O          -0.66289  
         O13       1.0000    0.57840   0.83750   0.40200   Biso      1.000     O          -0.663005           
         O14       1.0000    0.59400   0.26970   0.46100   Biso      1.000     O          -0.745227 