
##########################################################################
#               Crystallographic Information Format file
#               Produced by PyCifRW module
#
#  This is a CIF file.  CIF has been adopted by the International
#  Union of Crystallography as the standard for data archiving and
#  transmission.
#
#  For information on this file format, follow the CIF links at
#  http://www.iucr.org
##########################################################################

data_image0

_cell_length_a                          10.549
_cell_length_b                          10.842
_cell_length_c                          13.8
_cell_angle_alpha                       87.135
_cell_angle_beta                        72.428
_cell_angle_gamma                       66.412
_symmetry_space_group_name_H-M          'P 1'
_symmetry_int_tables_number             1
loop_
  _symmetry_equiv_pos_as_xyz
         'x, y, z' 
loop_
  _atom_site_label
  _atom_site_occupancy
  _atom_site_fract_x
  _atom_site_fract_y
  _atom_site_fract_z
  _atom_site_thermal_displace_type
  _atom_site_B_iso_or_equiv
  _atom_site_type_symbol
  _atom_site_charge
         Co1       1.0000    0.49646   0.67225   0.84095   Biso      1.000     Co          0.797254  
         Co2       1.0000    0.50352   0.32777   0.15907   Biso      1.000     Co          0.796909  
         Mo1       1.0000    0.01878   0.50442   0.86638   Biso      1.000     Mo          2.161888  
         Mo2       1.0000    0.98122   0.49559   0.13362   Biso      1.000     Mo          2.162242  
         Mo3       1.0000    0.32610   0.20933   0.86690   Biso      1.000     Mo          2.102681  
         Mo4       1.0000    0.67390   0.79067   0.13309   Biso      1.000     Mo          2.102393  
         Mo5       1.0000    0.00743   0.22332   0.01939   Biso      1.000     Mo          2.074612  
         Mo6       1.0000    0.99258   0.77668   0.98061   Biso      1.000     Mo          2.074961  
         Mo7       1.0000    0.29003   0.48458   0.98741   Biso      1.000     Mo          2.134651  
         Mo8       1.0000    0.70997   0.51542   0.01259   Biso      1.000     Mo          2.134487  
         C1        1.0000    0.58946   0.41643   0.70427   Biso      1.000     C          0.063131  
         C2        1.0000    0.41054   0.58356   0.29572   Biso      1.000     C          0.062975  
         C3        1.0000    0.77072   0.47172   0.67966   Biso      1.000     C          0.141806  
         C4        1.0000    0.22929   0.52828   0.32034   Biso      1.000     C          0.141891  
         C5        1.0000    0.71086   0.21706   0.57261   Biso      1.000     C          -0.1327   
         C6        1.0000    0.28914   0.78294   0.42738   Biso      1.000     C          -0.132581           
         C7        1.0000    0.86053   0.10394   0.53616   Biso      1.000     C          0.022706  
         C8        1.0000    0.13947   0.89606   0.46384   Biso      1.000     C          0.02265   
         C9        1.0000    0.90587   0.99805   0.59893   Biso      1.000     C          0.032519  
         C10       1.0000    0.09413   0.00195   0.40107   Biso      1.000     C          0.032618  
         C11       1.0000    0.04678   0.89361   0.56208   Biso      1.000     C          0.020036  
         C12       1.0000    0.95322   0.10639   0.43792   Biso      1.000     C          0.019971  
         C13       1.0000    0.09570   0.77726   0.62746   Biso      1.000     C          -0.134595           
         C14       1.0000    0.90430   0.22274   0.37254   Biso      1.000     C          -0.134309           
         C15       1.0000    0.26320   0.89132   0.76887   Biso      1.000     C          0.151229  
         C16       1.0000    0.73680   0.10868   0.23113   Biso      1.000     C          0.151204  
         C17       1.0000    0.29659   0.69482   0.71304   Biso      1.000     C          0.079712  
         C18       1.0000    0.70341   0.30518   0.28696   Biso      1.000     C          0.079745  
         C19       1.0000    0.80743   0.99858   0.70582   Biso      1.000     C          -0.132872           
         C20       1.0000    0.19257   0.00142   0.29418   Biso      1.000     C          -0.133364           
         C21       1.0000    0.67187   0.85260   0.79343   Biso      1.000     C          0.128949  
         C22       1.0000    0.32812   0.14740   0.20657   Biso      1.000     C          0.128764  
         C23       1.0000    0.62685   0.80506   0.66042   Biso      1.000     C          0.124457  
         C24       1.0000    0.37314   0.19494   0.33959   Biso      1.000     C          0.124803  
         H1        1.0000    0.48672   0.40674   0.73904   Biso      1.000     H          0.143375  
         H2        1.0000    0.51329   0.59326   0.26096   Biso      1.000     H          0.143333  
         H3        1.0000    0.67198   0.25941   0.50740   Biso      1.000     H          0.090785  
         H4        1.0000    0.32802   0.74059   0.49260   Biso      1.000     H          0.090589  
         H5        1.0000    0.62849   0.18199   0.62018   Biso      1.000     H          0.127725  
         H6        1.0000    0.37151   0.81801   0.37982   Biso      1.000     H          0.127748  
         H7        1.0000    0.00274   0.76542   0.68420   Biso      1.000     H          0.123053  
         H8        1.0000    0.99726   0.23457   0.31580   Biso      1.000     H          0.123007  
         H9        1.0000    0.15482   0.67963   0.58076   Biso      1.000     H          0.108067  
         H10       1.0000    0.84518   0.32037   0.41924   Biso      1.000     H          0.108031  
         H11       1.0000    0.26829   0.97272   0.80883   Biso      1.000     H          0.124846  
         H12       1.0000    0.73171   0.02728   0.19117   Biso      1.000     H          0.124855  
         H13       1.0000    0.33125   0.58723   0.69652   Biso      1.000     H          0.118885  
         H14       1.0000    0.66875   0.41277   0.30348   Biso      1.000     H          0.118888  
         H15       1.0000    0.86866   0.96903   0.76167   Biso      1.000     H          0.140273  
         H16       1.0000    0.13134   0.03096   0.23832   Biso      1.000     H          0.140398  
         H17       1.0000    0.72334   0.10086   0.73481   Biso      1.000     H          0.110082  
         H18       1.0000    0.27666   0.89914   0.26519   Biso      1.000     H          0.11017   
         H19       1.0000    0.67867   0.86181   0.87005   Biso      1.000     H          0.152235  
         H20       1.0000    0.32133   0.13819   0.12995   Biso      1.000     H          0.152279  
         H21       1.0000    0.58706   0.76593   0.61001   Biso      1.000     H          0.105933  
         H22       1.0000    0.41294   0.23407   0.38999   Biso      1.000     H          0.105902  
         H23       1.0000    0.83658   0.52402   0.68954   Biso      1.000     H          0.12574   
         H24       1.0000    0.16342   0.47597   0.31046   Biso      1.000     H          0.125582  
         N1        1.0000    0.60238   0.78574   0.76400   Biso      1.000     N          -0.305723           
         N2        1.0000    0.39761   0.21427   0.23601   Biso      1.000     N          -0.306106           
         N3        1.0000    0.73276   0.90681   0.71104   Biso      1.000     N          0.16899   
         N4        1.0000    0.26725   0.09319   0.28896   Biso      1.000     N          0.16914   
         N5        1.0000    0.70420   0.87815   0.62540   Biso      1.000     N          -0.242167           
         N6        1.0000    0.29580   0.12185   0.37460   Biso      1.000     N          -0.241848           
         N7        1.0000    0.34732   0.75413   0.76838   Biso      1.000     N          -0.300746           
         N8        1.0000    0.65268   0.24587   0.23163   Biso      1.000     N          -0.300734           
         N9        1.0000    0.19064   0.79161   0.68244   Biso      1.000     N          0.153806  
         N10       1.0000    0.80937   0.20839   0.31756   Biso      1.000     N          0.15379   
         N11       1.0000    0.16690   0.91820   0.71825   Biso      1.000     N          -0.216568           
         N12       1.0000    0.83310   0.08180   0.28175   Biso      1.000     N          -0.2166   
         N13       1.0000    0.62591   0.51053   0.73536   Biso      1.000     N          -0.291121           
         N14       1.0000    0.37409   0.48947   0.26464   Biso      1.000     N          -0.290168           
         N15       1.0000    0.70650   0.32832   0.63280   Biso      1.000     N          0.151477  
         N16       1.0000    0.29350   0.67168   0.36720   Biso      1.000     N          0.151249  
         N17       1.0000    0.82482   0.36192   0.61544   Biso      1.000     N          -0.245843           
         N18       1.0000    0.17518   0.63808   0.38455   Biso      1.000     N          -0.245922           
         O1        1.0000    0.89281   0.15243   0.01208   Biso      1.000     O          -0.603456           
         O2        1.0000    0.10719   0.84756   0.98792   Biso      1.000     O          -0.603433           
         O3        1.0000    0.87514   0.39451   0.10494   Biso      1.000     O          -0.942813           
         O4        1.0000    0.12486   0.60549   0.89506   Biso      1.000     O          -0.942567           
         O5        1.0000    0.08821   0.14124   0.10825   Biso      1.000     O          -0.655871           
         O6        1.0000    0.91179   0.85876   0.89175   Biso      1.000     O          -0.65611  
         O7        1.0000    0.94637   0.59688   0.77761   Biso      1.000     O          -0.650633           
         O8        1.0000    0.05362   0.40312   0.22239   Biso      1.000     O          -0.650895           
         O9        1.0000    0.86890   0.61086   0.00172   Biso      1.000     O          -1.139181           
         O10       1.0000    0.13110   0.38914   0.99828   Biso      1.000     O          -1.139338           
         O11       1.0000    0.44253   0.12572   0.75129   Biso      1.000     O          -0.680733           
         O12       1.0000    0.55747   0.87428   0.24871   Biso      1.000     O          -0.680942           
         O13       1.0000    0.38062   0.35977   0.87237   Biso      1.000     O          -0.830797           
         O14       1.0000    0.61938   0.64023   0.12762   Biso      1.000     O          -0.830637           
         O15       1.0000    0.37880   0.39135   0.07466   Biso      1.000     O          -0.691284           
         O16       1.0000    0.62119   0.60867   0.92535   Biso      1.000     O          -0.691155           
         O17       1.0000    0.38281   0.58865   0.93177   Biso      1.000     O          -0.68479  
         O18       1.0000    0.61717   0.41136   0.06824   Biso      1.000     O          -0.684811           
         O19       1.0000    0.10357   0.59945   0.08598   Biso      1.000     O          -0.896254           
         O20       1.0000    0.89643   0.40055   0.91401   Biso      1.000     O          -0.896299           
         O21       1.0000    0.17770   0.36916   0.79428   Biso      1.000     O          -0.738434           
         O22       1.0000    0.82230   0.63084   0.20572   Biso      1.000     O          -0.738469           
         O23       1.0000    0.16224   0.16143   0.89541   Biso      1.000     O          -0.819885           
         O24       1.0000    0.83776   0.83857   0.10459   Biso      1.000     O          -0.820038           
         O25       1.0000    0.40064   0.12112   0.95674   Biso      1.000     O          -0.644524           
         O26       1.0000    0.59936   0.87888   0.04326   Biso      1.000     O          -0.644158 