
##########################################################################
#               Crystallographic Information Format file
#               Produced by PyCifRW module
#
#  This is a CIF file.  CIF has been adopted by the International
#  Union of Crystallography as the standard for data archiving and
#  transmission.
#
#  For information on this file format, follow the CIF links at
#  http://www.iucr.org
##########################################################################

data_image0

_cell_length_a                          6.12
_cell_length_b                          9.719
_cell_length_c                          20.133
_cell_angle_alpha                       90
_cell_angle_beta                        90
_cell_angle_gamma                       90
_symmetry_space_group_name_H-M          'P 1'
_symmetry_int_tables_number             1
loop_
  _symmetry_equiv_pos_as_xyz
         'x, y, z' 
loop_
  _atom_site_label
  _atom_site_occupancy
  _atom_site_fract_x
  _atom_site_fract_y
  _atom_site_fract_z
  _atom_site_thermal_displace_type
  _atom_site_B_iso_or_equiv
  _atom_site_type_symbol
  _atom_site_charge
         C1        1.0000    0.61550   0.67330   0.30730   Biso      1.000     C          0.684221  
         C2        1.0000    0.58020   0.43760   0.87380   Biso      1.000     C          -0.040387           
         C3        1.0000    0.49480   0.47790   0.93480   Biso      1.000     C          -0.102094           
         C4        1.0000    0.60660   0.45430   0.99330   Biso      1.000     C          -0.031868           
         C5        1.0000    0.81390   0.39420   0.99090   Biso      1.000     C          -0.060628           
         C6        1.0000    0.89750   0.35190   0.93090   Biso      1.000     C          -0.099526           
         C7        1.0000    0.88450   0.32670   0.80730   Biso      1.000     C          0.684319  
         C8        1.0000    0.44740   0.45730   0.81320   Biso      1.000     C          0.608463  
         C9        1.0000    0.00410   0.00650   0.94160   Biso      1.000     C          0.605222  
         C10       1.0000    0.50410   0.49350   0.05840   Biso      1.000     C          0.605221  
         C11       1.0000    0.91980   0.56240   0.37380   Biso      1.000     C          -0.040522           
         C12       1.0000    0.00520   0.52210   0.43480   Biso      1.000     C          -0.102031           
         C13       1.0000    0.89340   0.54570   0.49330   Biso      1.000     C          -0.031835           
         C14       1.0000    0.68610   0.60580   0.49090   Biso      1.000     C          -0.059131           
         C15       1.0000    0.60250   0.64810   0.43090   Biso      1.000     C          -0.100058           
         C16       1.0000    0.05260   0.54270   0.31320   Biso      1.000     C          0.608366  
         C17       1.0000    0.99590   0.50650   0.55840   Biso      1.000     C          0.605275  
         C18       1.0000    0.71500   0.62780   0.37230   Biso      1.000     C          -0.051444           
         C19       1.0000    0.94740   0.04270   0.18680   Biso      1.000     C          0.608463  
         C20       1.0000    0.78500   0.37220   0.87230   Biso      1.000     C          -0.050551           
         C21       1.0000    0.39750   0.14810   0.06910   Biso      1.000     C          -0.099529           
         C22       1.0000    0.21500   0.87220   0.62770   Biso      1.000     C          -0.051446           
         C23       1.0000    0.41980   0.93760   0.62620   Biso      1.000     C          -0.040522           
         C24       1.0000    0.50520   0.97790   0.56520   Biso      1.000     C          -0.102031           
         C25       1.0000    0.38450   0.17330   0.19270   Biso      1.000     C          0.684319  
         C26       1.0000    0.18610   0.89420   0.50910   Biso      1.000     C          -0.059131           
         C27       1.0000    0.10250   0.85190   0.56910   Biso      1.000     C          -0.100056           
         C28       1.0000    0.11550   0.82670   0.69270   Biso      1.000     C          0.684221  
         C29       1.0000    0.39340   0.95430   0.50670   Biso      1.000     C          -0.031835           
         C30       1.0000    0.49590   0.99350   0.44160   Biso      1.000     C          0.605275  
         C31       1.0000    0.28500   0.12780   0.12770   Biso      1.000     C          -0.05055  
         C32       1.0000    0.08020   0.06240   0.12620   Biso      1.000     C          -0.040387           
         C33       1.0000    0.99480   0.02210   0.06520   Biso      1.000     C          -0.102094           
         C34       1.0000    0.10660   0.04570   0.00670   Biso      1.000     C          -0.031869           
         C35       1.0000    0.31390   0.10580   0.00910   Biso      1.000     C          -0.060625           
         C36       1.0000    0.55260   0.95730   0.68680   Biso      1.000     C          0.608366  
         H1        1.0000    0.93663   0.79870   0.57123   Biso      1.000     H          0.098022  
         H2        1.0000    0.82936   0.96843   0.06280   Biso      1.000     H          0.114838  
         H3        1.0000    0.41247   0.11947   0.96151   Biso      1.000     H          0.105298  
         H4        1.0000    0.56373   0.20102   0.06974   Biso      1.000     H          0.09768   
         H5        1.0000    0.32936   0.53157   0.93720   Biso      1.000     H          0.114838  
         H6        1.0000    0.06373   0.29898   0.93026   Biso      1.000     H          0.09768   
         H7        1.0000    0.91247   0.38053   0.03849   Biso      1.000     H          0.105298  
         H8        1.0000    0.08753   0.88053   0.46151   Biso      1.000     H          0.105197  
         H9        1.0000    0.17064   0.46843   0.43720   Biso      1.000     H          0.114833  
         H10       1.0000    0.67064   0.03157   0.56280   Biso      1.000     H          0.114833  
         H11       1.0000    0.43663   0.70130   0.42877   Biso      1.000     H          0.098022  
         H12       1.0000    0.58753   0.61947   0.53849   Biso      1.000     H          0.105197  
         Nd1       1.0000    0.71420   0.03400   0.31470   Biso      1.000     Nd          2.158585  
         Nd2       1.0000    0.78580   0.96600   0.81470   Biso      1.000     Nd          2.158502  
         Nd3       1.0000    0.28580   0.53400   0.18530   Biso      1.000     Nd          2.158502  
         Nd4       1.0000    0.21420   0.46600   0.68530   Biso      1.000     Nd          2.158585  
         O1        1.0000    0.07420   0.70090   0.70070   Biso      1.000     O          -0.671263           
         O2        1.0000    0.06580   0.92150   0.73240   Biso      1.000     O          -0.65038  
         O3        1.0000    0.64420   0.06990   0.69820   Biso      1.000     O          -0.61776  
         O4        1.0000    0.57130   0.85540   0.72600   Biso      1.000     O          -0.688422           
         O5        1.0000    0.69760   0.01580   0.43980   Biso      1.000     O          -0.692058           
         O6        1.0000    0.38160   0.00140   0.38990   Biso      1.000     O          -0.66957  
         O7        1.0000    0.88160   0.49860   0.61010   Biso      1.000     O          -0.66957  
         O8        1.0000    0.19760   0.48420   0.56020   Biso      1.000     O          -0.692058           
         O9        1.0000    0.42580   0.29910   0.20070   Biso      1.000     O          -0.671155           
         O10       1.0000    0.43420   0.07850   0.23240   Biso      1.000     O          -0.65054  
         O11       1.0000    0.56580   0.57850   0.26760   Biso      1.000     O          -0.65038  
         O12       1.0000    0.57420   0.79910   0.29930   Biso      1.000     O          -0.671264           
         O13       1.0000    0.61840   0.50140   0.11010   Biso      1.000     O          -0.669375           
         O14       1.0000    0.30240   0.51580   0.06020   Biso      1.000     O          -0.692225           
         O15       1.0000    0.42870   0.35540   0.77400   Biso      1.000     O          -0.688313           
         O16       1.0000    0.35580   0.56990   0.80180   Biso      1.000     O          -0.617686           
         O17       1.0000    0.93420   0.42150   0.76760   Biso      1.000     O          -0.65054  
         O18       1.0000    0.92580   0.20090   0.79930   Biso      1.000     O          -0.671155           
         O19       1.0000    0.11840   0.99860   0.88990   Biso      1.000     O          -0.669375           
         O20       1.0000    0.80240   0.98420   0.93980   Biso      1.000     O          -0.692225           
         O21       1.0000    0.92870   0.14460   0.22600   Biso      1.000     O          -0.688313           
         O22       1.0000    0.85580   0.93010   0.19820   Biso      1.000     O          -0.617686           
         O23       1.0000    0.14420   0.43010   0.30180   Biso      1.000     O          -0.61776  
         O24       1.0000    0.07130   0.64460   0.27400   Biso      1.000     O          -0.688422 