
##########################################################################
#               Crystallographic Information Format file
#               Produced by PyCifRW module
#
#  This is a CIF file.  CIF has been adopted by the International
#  Union of Crystallography as the standard for data archiving and
#  transmission.
#
#  For information on this file format, follow the CIF links at
#  http://www.iucr.org
##########################################################################

data_image0

_cell_length_a                          8.9108
_cell_length_b                          9.0223
_cell_length_c                          15.6837
_cell_angle_alpha                       90
_cell_angle_beta                        90
_cell_angle_gamma                       90
_symmetry_space_group_name_H-M          'P 1'
_symmetry_int_tables_number             1
loop_
  _symmetry_equiv_pos_as_xyz
         'x, y, z' 
loop_
  _atom_site_label
  _atom_site_occupancy
  _atom_site_fract_x
  _atom_site_fract_y
  _atom_site_fract_z
  _atom_site_thermal_displace_type
  _atom_site_B_iso_or_equiv
  _atom_site_type_symbol
  _atom_site_charge
         C1        1.0000    0.72670   0.13130   0.93050   Biso      1.000     C          0.700757  
         C2        1.0000    0.21620   0.21320   0.23230   Biso      1.000     C          -0.476599           
         C3        1.0000    0.30690   0.39250   0.33900   Biso      1.000     C          -0.29097  
         C4        1.0000    0.27330   0.36870   0.43050   Biso      1.000     C          0.700757  
         C5        1.0000    0.48080   0.27890   0.24230   Biso      1.000     C          -0.28472800000000004          
         C6        1.0000    0.61500   0.26440   0.30220   Biso      1.000     C          0.6476430000000001  
         C7        1.0000    0.78380   0.28680   0.73230   Biso      1.000     C          -0.47659799999999997          
         C8        1.0000    0.51920   0.22110   0.74230   Biso      1.000     C          -0.28472800000000004          
         C9        1.0000    0.38500   0.23560   0.80220   Biso      1.000     C          0.6476430000000001  
         C10       1.0000    0.71620   0.78680   0.26770   Biso      1.000     C          -0.47659799999999997          
         C11       1.0000    0.69310   0.10750   0.83900   Biso      1.000     C          -0.29097  
         C12       1.0000    0.77330   0.63130   0.06950   Biso      1.000     C          0.700757  
         C13       1.0000    0.98080   0.72110   0.25770   Biso      1.000     C          -0.28472800000000004          
         C14       1.0000    0.11500   0.73560   0.19780   Biso      1.000     C          0.6476430000000001  
         C15       1.0000    0.28380   0.71320   0.76770   Biso      1.000     C          -0.47659799999999997          
         C16       1.0000    0.19310   0.89250   0.66100   Biso      1.000     C          -0.29097  
         C17       1.0000    0.22670   0.86870   0.56950   Biso      1.000     C          0.700757  
         C18       1.0000    0.01920   0.77890   0.75770   Biso      1.000     C          -0.28472800000000004          
         C19       1.0000    0.88500   0.76440   0.69780   Biso      1.000     C          0.6476430000000001  
         C20       1.0000    0.80690   0.60750   0.16100   Biso      1.000     C          -0.29097  
         H1        1.0000    0.24760   0.64410   0.81040   Biso      1.000     H          0.175586  
         H2        1.0000    0.59610   0.76920   0.67760   Biso      1.000     H          0.43254   
         H3        1.0000    0.01930   0.87650   0.78370   Biso      1.000     H          0.132056  
         H4        1.0000    0.10860   0.95990   0.66540   Biso      1.000     H          0.153279  
         H5        1.0000    0.27880   0.94070   0.68720   Biso      1.000     H          0.139287  
         H6        1.0000    0.32250   0.80000   0.79680   Biso      1.000     H          0.154289  
         H7        1.0000    0.40390   0.73080   0.17760   Biso      1.000     H          0.43254   
         H8        1.0000    0.01190   0.70570   0.80280   Biso      1.000     H          0.155588  
         H9        1.0000    0.98070   0.62350   0.28370   Biso      1.000     H          0.132056  
         H10       1.0000    0.98810   0.79430   0.30280   Biso      1.000     H          0.155588  
         H11       1.0000    0.17750   0.30000   0.20320   Biso      1.000     H          0.154289  
         H12       1.0000    0.22120   0.44070   0.31280   Biso      1.000     H          0.139287  
         H13       1.0000    0.39140   0.45990   0.33460   Biso      1.000     H          0.153279  
         H14       1.0000    0.48070   0.37650   0.21630   Biso      1.000     H          0.132056  
         H15       1.0000    0.48810   0.20570   0.19720   Biso      1.000     H          0.155588  
         H16       1.0000    0.90390   0.26920   0.32240   Biso      1.000     H          0.43254   
         H17       1.0000    0.74760   0.35590   0.68960   Biso      1.000     H          0.175586  
         H18       1.0000    0.82250   0.20000   0.70320   Biso      1.000     H          0.154289  
         H19       1.0000    0.25240   0.14410   0.18960   Biso      1.000     H          0.175586  
         H20       1.0000    0.60860   0.04010   0.83460   Biso      1.000     H          0.153279  
         H21       1.0000    0.77880   0.05930   0.81280   Biso      1.000     H          0.139287  
         H22       1.0000    0.72120   0.55930   0.18720   Biso      1.000     H          0.139287  
         H23       1.0000    0.67750   0.70000   0.29680   Biso      1.000     H          0.154289  
         H24       1.0000    0.75240   0.85590   0.31040   Biso      1.000     H          0.175586  
         H25       1.0000    0.89140   0.54010   0.16540   Biso      1.000     H          0.153279  
         H26       1.0000    0.51190   0.29430   0.69720   Biso      1.000     H          0.155588  
         H27       1.0000    0.51930   0.12350   0.71630   Biso      1.000     H          0.132056  
         H28       1.0000    0.09610   0.23080   0.82240   Biso      1.000     H          0.43254   
         N1        1.0000    0.65790   0.24300   0.78980   Biso      1.000     N          -0.07080800000000001          
         N2        1.0000    0.15790   0.75700   0.71020   Biso      1.000     N          -0.07080800000000001          
         N3        1.0000    0.34210   0.25700   0.28980   Biso      1.000     N          -0.07080800000000001          
         N4        1.0000    0.84210   0.74300   0.21020   Biso      1.000     N          -0.07080800000000001          
         O1        1.0000    0.03510   0.44900   0.73265   Biso      1.000     O          -0.836393           
         O2        1.0000    0.01680   0.25100   0.84630   Biso      1.000     O          -0.692258           
         O3        1.0000    0.85420   0.47430   0.85531   Biso      1.000     O          -0.800788           
         O4        1.0000    0.81370   0.75510   0.03479   Biso      1.000     O          -0.649493           
         O5        1.0000    0.70800   0.53160   0.02929   Biso      1.000     O          -0.607036           
         O6        1.0000    0.23940   0.68350   0.22360   Biso      1.000     O          -0.579108           
         O7        1.0000    0.09920   0.81210   0.12982   Biso      1.000     O          -0.6609510000000001           
         O8        1.0000    0.76060   0.81650   0.72360   Biso      1.000     O          -0.579108           
         O9        1.0000    0.90080   0.68790   0.62982   Biso      1.000     O          -0.66095  
         O10       1.0000    0.29200   0.96840   0.52929   Biso      1.000     O          -0.6070369999999999           
         O11       1.0000    0.18630   0.74490   0.53479   Biso      1.000     O          -0.649493           
         O12       1.0000    0.64580   0.97430   0.14469   Biso      1.000     O          -0.800788           
         O13       1.0000    0.46490   0.94900   0.26735   Biso      1.000     O          -0.836393           
         O14       1.0000    0.48320   0.75100   0.15370   Biso      1.000     O          -0.692258           
         O15       1.0000    0.40080   0.31210   0.87018   Biso      1.000     O          -0.66095  
         O16       1.0000    0.51680   0.74900   0.65370   Biso      1.000     O          -0.692258           
         O17       1.0000    0.26060   0.18350   0.77640   Biso      1.000     O          -0.579108           
         O18       1.0000    0.35420   0.52570   0.64469   Biso      1.000     O          -0.800788           
         O19       1.0000    0.68630   0.25510   0.96521   Biso      1.000     O          -0.649493           
         O20       1.0000    0.79200   0.03160   0.97071   Biso      1.000     O          -0.607036           
         O21       1.0000    0.31370   0.24490   0.46521   Biso      1.000     O          -0.649492           
         O22       1.0000    0.20800   0.46840   0.47071   Biso      1.000     O          -0.6070369999999999           
         O23       1.0000    0.73940   0.31650   0.27640   Biso      1.000     O          -0.579108           
         O24       1.0000    0.53510   0.55100   0.76735   Biso      1.000     O          -0.836393           
         O25       1.0000    0.98320   0.24900   0.34630   Biso      1.000     O          -0.6922590000000001           
         O26       1.0000    0.96490   0.05100   0.23265   Biso      1.000     O          -0.836393           
         O27       1.0000    0.14580   0.02570   0.35531   Biso      1.000     O          -0.800788           
         O28       1.0000    0.59920   0.18790   0.37018   Biso      1.000     O          -0.66095  
         P1        1.0000    0.43201   0.62751   0.70601   Biso      1.000     P          1.412687  
         P2        1.0000    0.56799   0.87249   0.20601   Biso      1.000     P          1.412687  
         P3        1.0000    0.93201   0.37249   0.79399   Biso      1.000     P          1.412687  
         P4        1.0000    0.06799   0.12751   0.29399   Biso      1.000     P          1.412687  
         Y1        1.0000    0.10927   0.53133   0.60391   Biso      1.000     Y          1.84542   
         Y2        1.0000    0.89073   0.96867   0.10391   Biso      1.000     Y          1.845421  
         Y3        1.0000    0.60927   0.46867   0.89609   Biso      1.000     Y          1.845419  
         Y4        1.0000    0.39073   0.03133   0.39609   Biso      1.000     Y          1.845419 