
##########################################################################
#               Crystallographic Information Format file
#               Produced by PyCifRW module
#
#  This is a CIF file.  CIF has been adopted by the International
#  Union of Crystallography as the standard for data archiving and
#  transmission.
#
#  For information on this file format, follow the CIF links at
#  http://www.iucr.org
##########################################################################

data_image0

_cell_length_a                          9.0085
_cell_length_b                          9.0085
_cell_length_c                          15.799
_cell_angle_alpha                       90
_cell_angle_beta                        90
_cell_angle_gamma                       90
_symmetry_space_group_name_H-M          'P 1'
_symmetry_int_tables_number             1
loop_
  _symmetry_equiv_pos_as_xyz
         'x, y, z' 
loop_
  _atom_site_label
  _atom_site_occupancy
  _atom_site_fract_x
  _atom_site_fract_y
  _atom_site_fract_z
  _atom_site_thermal_displace_type
  _atom_site_B_iso_or_equiv
  _atom_site_type_symbol
  _atom_site_charge
         C1        1.0000    0.13200   0.72700   0.93120   Biso      1.000     C          0.71532   
         C2        1.0000    0.36800   0.27300   0.43120   Biso      1.000     C          0.71532   
         C3        1.0000    0.27940   0.48000   0.24220   Biso      1.000     C          -0.279169           
         C4        1.0000    0.26310   0.61300   0.30240   Biso      1.000     C          0.655391  
         C5        1.0000    0.28760   0.78530   0.73200   Biso      1.000     C          -0.472715           
         C6        1.0000    0.10750   0.69460   0.83910   Biso      1.000     C          -0.281708           
         C7        1.0000    0.22060   0.52000   0.74220   Biso      1.000     C          -0.27917  
         C8        1.0000    0.23690   0.38700   0.80240   Biso      1.000     C          0.655392  
         C9        1.0000    0.78760   0.71470   0.26800   Biso      1.000     C          -0.472714           
         C10       1.0000    0.60750   0.80540   0.16090   Biso      1.000     C          -0.281708           
         C11       1.0000    0.63200   0.77300   0.06880   Biso      1.000     C          0.71532   
         C12       1.0000    0.72060   0.98000   0.25780   Biso      1.000     C          -0.279168           
         C13       1.0000    0.73690   0.11300   0.19760   Biso      1.000     C          0.655391  
         C14       1.0000    0.71240   0.28530   0.76800   Biso      1.000     C          -0.472713           
         C15       1.0000    0.89250   0.19460   0.66090   Biso      1.000     C          -0.281709           
         C16       1.0000    0.86800   0.22700   0.56880   Biso      1.000     C          0.715321  
         C17       1.0000    0.77940   0.02000   0.75780   Biso      1.000     C          -0.279169           
         C18       1.0000    0.76310   0.88700   0.69760   Biso      1.000     C          0.655391  
         C19       1.0000    0.39250   0.30540   0.33910   Biso      1.000     C          -0.281708           
         C20       1.0000    0.21240   0.21470   0.23200   Biso      1.000     C          -0.472714           
         Er1       1.0000    0.03212   0.38941   0.39568   Biso      1.000     Er          2.047562  
         Er2       1.0000    0.96788   0.88941   0.10432   Biso      1.000     Er          2.047565  
         Er3       1.0000    0.46788   0.61059   0.89568   Biso      1.000     Er          2.047563  
         Er4       1.0000    0.53212   0.11059   0.60432   Biso      1.000     Er          2.047562  
         H1        1.0000    0.29300   0.51260   0.69700   Biso      1.000     H          0.159412  
         H2        1.0000    0.14290   0.25030   0.18970   Biso      1.000     H          0.175522  
         H3        1.0000    0.29940   0.17680   0.20300   Biso      1.000     H          0.156222  
         H4        1.0000    0.44060   0.22020   0.31340   Biso      1.000     H          0.142318  
         H5        1.0000    0.46020   0.38880   0.33440   Biso      1.000     H          0.153903  
         H6        1.0000    0.37770   0.48020   0.21720   Biso      1.000     H          0.135299  
         H7        1.0000    0.20700   0.48740   0.19700   Biso      1.000     H          0.159412  
         H8        1.0000    0.26910   0.90390   0.32300   Biso      1.000     H          0.433564  
         H9        1.0000    0.35710   0.74970   0.68970   Biso      1.000     H          0.175522  
         H10       1.0000    0.20060   0.82320   0.70300   Biso      1.000     H          0.156221  
         H11       1.0000    0.05940   0.77980   0.81340   Biso      1.000     H          0.142318  
         H12       1.0000    0.03980   0.61120   0.83440   Biso      1.000     H          0.153903  
         H13       1.0000    0.23090   0.09610   0.82300   Biso      1.000     H          0.433564  
         H14       1.0000    0.76910   0.59610   0.67700   Biso      1.000     H          0.433564  
         H15       1.0000    0.12230   0.51980   0.71720   Biso      1.000     H          0.1353    
         H16       1.0000    0.85710   0.75030   0.31030   Biso      1.000     H          0.175522  
         H17       1.0000    0.70060   0.67680   0.29700   Biso      1.000     H          0.156222  
         H18       1.0000    0.53980   0.88880   0.16560   Biso      1.000     H          0.153903  
         H19       1.0000    0.62230   0.98020   0.28280   Biso      1.000     H          0.135299  
         H20       1.0000    0.79300   0.98740   0.30300   Biso      1.000     H          0.159412  
         H21       1.0000    0.73090   0.40390   0.17700   Biso      1.000     H          0.433563  
         H22       1.0000    0.55940   0.72020   0.18660   Biso      1.000     H          0.142318  
         H23       1.0000    0.79940   0.32320   0.79700   Biso      1.000     H          0.156221  
         H24       1.0000    0.94060   0.27980   0.68660   Biso      1.000     H          0.142319  
         H25       1.0000    0.96020   0.11120   0.66560   Biso      1.000     H          0.153904  
         H26       1.0000    0.87770   0.01980   0.78280   Biso      1.000     H          0.135299  
         H27       1.0000    0.64290   0.24970   0.81030   Biso      1.000     H          0.175522  
         H28       1.0000    0.70700   0.01260   0.80300   Biso      1.000     H          0.159412  
         N1        1.0000    0.74380   0.84010   0.21020   Biso      1.000     N          -0.106618           
         N2        1.0000    0.25620   0.34010   0.28980   Biso      1.000     N          -0.106617           
         N3        1.0000    0.24380   0.65990   0.78980   Biso      1.000     N          -0.106617           
         N4        1.0000    0.75620   0.15990   0.71020   Biso      1.000     N          -0.106617           
         O1        1.0000    0.47430   0.85630   0.85540   Biso      1.000     O          -0.844573           
         O2        1.0000    0.75500   0.81360   0.03470   Biso      1.000     O          -0.684015           
         O3        1.0000    0.53080   0.70750   0.02890   Biso      1.000     O          -0.665071           
         O4        1.0000    0.68390   0.23740   0.22380   Biso      1.000     O          -0.584531           
         O5        1.0000    0.81070   0.09660   0.12990   Biso      1.000     O          -0.701443           
         O6        1.0000    0.75120   0.48250   0.15350   Biso      1.000     O          -0.685484           
         O7        1.0000    0.74880   0.51750   0.65350   Biso      1.000     O          -0.685484           
         O8        1.0000    0.97430   0.64370   0.14460   Biso      1.000     O          -0.844572           
         O9        1.0000    0.44930   0.03720   0.73330   Biso      1.000     O          -0.896697           
         O10       1.0000    0.74500   0.18640   0.53470   Biso      1.000     O          -0.684016           
         O11       1.0000    0.96920   0.29250   0.52890   Biso      1.000     O          -0.665071           
         O12       1.0000    0.81610   0.76260   0.72380   Biso      1.000     O          -0.584531           
         O13       1.0000    0.68930   0.90340   0.62990   Biso      1.000     O          -0.701443           
         O14       1.0000    0.94930   0.46280   0.26670   Biso      1.000     O          -0.896696           
         O15       1.0000    0.25120   0.01750   0.84650   Biso      1.000     O          -0.685484           
         O16       1.0000    0.31610   0.73740   0.27620   Biso      1.000     O          -0.584531           
         O17       1.0000    0.18390   0.26260   0.77620   Biso      1.000     O          -0.584531           
         O18       1.0000    0.03080   0.79250   0.97110   Biso      1.000     O          -0.665071           
         O19       1.0000    0.25500   0.68640   0.96530   Biso      1.000     O          -0.684016           
         O20       1.0000    0.02570   0.14370   0.35540   Biso      1.000     O          -0.844572           
         O21       1.0000    0.05070   0.96280   0.23330   Biso      1.000     O          -0.896697           
         O22       1.0000    0.24880   0.98250   0.34650   Biso      1.000     O          -0.685483           
         O23       1.0000    0.18930   0.59660   0.37010   Biso      1.000     O          -0.701443           
         O24       1.0000    0.46920   0.20750   0.47110   Biso      1.000     O          -0.665071           
         O25       1.0000    0.24500   0.31360   0.46530   Biso      1.000     O          -0.684015           
         O26       1.0000    0.55070   0.53720   0.76670   Biso      1.000     O          -0.896697           
         O27       1.0000    0.31070   0.40340   0.87010   Biso      1.000     O          -0.701443           
         O28       1.0000    0.52570   0.35630   0.64460   Biso      1.000     O          -0.844572           
         P1        1.0000    0.12667   0.06673   0.29404   Biso      1.000     P          1.427506  
         P2        1.0000    0.37333   0.93327   0.79404   Biso      1.000     P          1.427508  
         P3        1.0000    0.87333   0.56673   0.20596   Biso      1.000     P          1.427506  
         P4        1.0000    0.62667   0.43327   0.70596   Biso      1.000     P          1.427506 