
##########################################################################
#               Crystallographic Information Format file
#               Produced by PyCifRW module
#
#  This is a CIF file.  CIF has been adopted by the International
#  Union of Crystallography as the standard for data archiving and
#  transmission.
#
#  For information on this file format, follow the CIF links at
#  http://www.iucr.org
##########################################################################

data_image0

_cell_length_a                          13.5494
_cell_length_b                          13.5494
_cell_length_c                          15.2795
_cell_angle_alpha                       90
_cell_angle_beta                        90
_cell_angle_gamma                       120
_symmetry_space_group_name_H-M          'P 1'
_symmetry_int_tables_number             1
loop_
  _symmetry_equiv_pos_as_xyz
         'x, y, z' 
loop_
  _atom_site_label
  _atom_site_occupancy
  _atom_site_fract_x
  _atom_site_fract_y
  _atom_site_fract_z
  _atom_site_thermal_displace_type
  _atom_site_B_iso_or_equiv
  _atom_site_type_symbol
  _atom_site_charge
         Al1       1.0000    0.09730   0.66210   0.06950   Biso      1.000     Al          1.7839189999999998  
         Al2       1.0000    0.66210   0.56480   0.93050   Biso      1.000     Al          1.783924  
         Al3       1.0000    0.32877   0.89813   0.26383   Biso      1.000     Al          1.783765  
         Al4       1.0000    0.90270   0.33790   0.93050   Biso      1.000     Al          1.7839189999999998  
         Al5       1.0000    0.00457   0.76853   0.40283   Biso      1.000     Al          1.7841189999999998  
         Al6       1.0000    0.56480   0.90270   0.06950   Biso      1.000     Al          1.783923  
         Al7       1.0000    0.99543   0.23147   0.59717   Biso      1.000     Al          1.7841189999999998  
         Al8       1.0000    0.33790   0.43520   0.06950   Biso      1.000     Al          1.783924  
         Al9       1.0000    0.23603   0.00457   0.59717   Biso      1.000     Al          1.7837610000000002  
         Al10      1.0000    0.23147   0.23603   0.40283   Biso      1.000     Al          1.7842209999999998  
         Al11      1.0000    0.43063   0.32877   0.73617   Biso      1.000     Al          1.7840040000000001  
         Al12      1.0000    0.43520   0.09730   0.93050   Biso      1.000     Al          1.783923  
         Al13      1.0000    0.76397   0.99543   0.40283   Biso      1.000     Al          1.7837610000000002  
         Al14      1.0000    0.76853   0.76397   0.59717   Biso      1.000     Al          1.7842209999999998  
         Al15      1.0000    0.89813   0.56937   0.73617   Biso      1.000     Al          1.7836889999999999  
         Al16      1.0000    0.56937   0.67123   0.26383   Biso      1.000     Al          1.7840040000000001  
         Al17      1.0000    0.67123   0.10187   0.73617   Biso      1.000     Al          1.783765  
         Al18      1.0000    0.10187   0.43063   0.26383   Biso      1.000     Al          1.7836889999999999  
         O1        1.0000    0.78960   0.57360   0.95640   Biso      1.000     O          -0.874518           
         O2        1.0000    0.94610   0.33930   0.82270   Biso      1.000     O          -0.894501           
         O3        1.0000    0.11733   0.87707   0.62307   Biso      1.000     O          -0.8744   
         O4        1.0000    0.20743   0.11387   0.61467   Biso      1.000     O          -0.926742           
         O5        1.0000    0.54077   0.78053   0.28133   Biso      1.000     O          -0.9268299999999999           
         O6        1.0000    0.01020   0.35040   0.99810   Biso      1.000     O          -0.8552489999999999           
         O7        1.0000    0.34353   0.01707   0.66477   Biso      1.000     O          -0.855202           
         O8        1.0000    0.67687   0.68373   0.33143   Biso      1.000     O          -0.855239           
         O9        1.0000    0.27943   0.00597   0.48937   Biso      1.000     O          -0.8945489999999999           
         O10       1.0000    0.87410   0.44720   0.94800   Biso      1.000     O          -0.9268639999999999           
         O11       1.0000    0.78400   0.21040   0.95640   Biso      1.000     O          -0.8745059999999999           
         O12       1.0000    0.61277   0.67263   0.15603   Biso      1.000     O          -0.894631           
         O13       1.0000    0.45067   0.54373   0.28973   Biso      1.000     O          -0.874491           
         O14       1.0000    0.45627   0.90693   0.28973   Biso      1.000     O          -0.874393           
         O15       1.0000    0.64960   0.65980   0.99810   Biso      1.000     O          -0.8552420000000001           
         O16       1.0000    0.90643   0.79257   0.61467   Biso      1.000     O          -0.9268649999999999           
         O17       1.0000    0.75973   0.88267   0.62307   Biso      1.000     O          -0.874589           
         O18       1.0000    0.05987   0.38723   0.15603   Biso      1.000     O          -0.8945489999999999           
         O19       1.0000    0.00687   0.32313   0.33143   Biso      1.000     O          -0.855173           
         O20       1.0000    0.23977   0.45923   0.28133   Biso      1.000     O          -0.926783           
         O21       1.0000    0.09307   0.54933   0.28973   Biso      1.000     O          -0.8743139999999999           
         O22       1.0000    0.39320   0.05390   0.82270   Biso      1.000     O          -0.8944989999999999           
         O23       1.0000    0.34020   0.98980   0.99810   Biso      1.000     O          -0.855247           
         O24       1.0000    0.55280   0.42690   0.94800   Biso      1.000     O          -0.9268489999999999           
         O25       1.0000    0.57310   0.12590   0.94800   Biso      1.000     O          -0.9268700000000001           
         O26       1.0000    0.99403   0.27347   0.48937   Biso      1.000     O          -0.8946930000000001           
         O27       1.0000    0.98293   0.32647   0.66477   Biso      1.000     O          -0.85525  
         O28       1.0000    0.88613   0.09357   0.61467   Biso      1.000     O          -0.9268930000000001           
         O29       1.0000    0.12293   0.24027   0.62307   Biso      1.000     O          -0.874551           
         O30       1.0000    0.32737   0.94013   0.15603   Biso      1.000     O          -0.8945620000000001           
         O31       1.0000    0.31627   0.99313   0.33143   Biso      1.000     O          -0.855224           
         O32       1.0000    0.21947   0.76023   0.28133   Biso      1.000     O          -0.926692           
         O33       1.0000    0.66070   0.60680   0.82270   Biso      1.000     O          -0.8945200000000001           
         O34       1.0000    0.42640   0.21600   0.95640   Biso      1.000     O          -0.8744930000000001           
         O35       1.0000    0.67353   0.65647   0.66477   Biso      1.000     O          -0.855368           
         O36       1.0000    0.94013   0.61277   0.84397   Biso      1.000     O          -0.8945489999999999           
         O37       1.0000    0.76023   0.54077   0.71867   Biso      1.000     O          -0.926783           
         O38       1.0000    0.11387   0.90643   0.38533   Biso      1.000     O          -0.9268930000000001           
         O39       1.0000    0.99313   0.67687   0.66857   Biso      1.000     O          -0.855173           
         O40       1.0000    0.33930   0.39320   0.17730   Biso      1.000     O          -0.8945200000000001           
         O41       1.0000    0.35040   0.34020   0.00190   Biso      1.000     O          -0.8552420000000001           
         O42       1.0000    0.44720   0.57310   0.05200   Biso      1.000     O          -0.926848           
         O43       1.0000    0.21040   0.42640   0.04360   Biso      1.000     O          -0.874518           
         O44       1.0000    0.38723   0.32737   0.84397   Biso      1.000     O          -0.8946299999999999           
         O45       1.0000    0.32313   0.31627   0.66857   Biso      1.000     O          -0.85524  
         O46       1.0000    0.01707   0.67353   0.33523   Biso      1.000     O          -0.85525  
         O47       1.0000    0.45923   0.21947   0.71867   Biso      1.000     O          -0.9268299999999999           
         O48       1.0000    0.72057   0.99403   0.51063   Biso      1.000     O          -0.8945489999999999           
         O49       1.0000    0.65647   0.98293   0.33523   Biso      1.000     O          -0.855201           
         O50       1.0000    0.79257   0.88613   0.38533   Biso      1.000     O          -0.926742           
         O51       1.0000    0.88267   0.12293   0.37693   Biso      1.000     O          -0.8744   
         O52       1.0000    0.05390   0.66070   0.17730   Biso      1.000     O          -0.894501           
         O53       1.0000    0.98980   0.64960   0.00190   Biso      1.000     O          -0.8552489999999999           
         O54       1.0000    0.12590   0.55280   0.05200   Biso      1.000     O          -0.9268639999999999           
         O55       1.0000    0.21600   0.78960   0.04360   Biso      1.000     O          -0.8745059999999999           
         O56       1.0000    0.54933   0.45627   0.71027   Biso      1.000     O          -0.874491           
         O57       1.0000    0.00597   0.72653   0.51063   Biso      1.000     O          -0.8946930000000001           
         O58       1.0000    0.87707   0.75973   0.37693   Biso      1.000     O          -0.874551           
         O59       1.0000    0.54373   0.09307   0.71027   Biso      1.000     O          -0.874393           
         O60       1.0000    0.90693   0.45067   0.71027   Biso      1.000     O          -0.8743139999999999           
         O61       1.0000    0.27347   0.27943   0.51063   Biso      1.000     O          -0.8947510000000001           
         O62       1.0000    0.32647   0.34353   0.33523   Biso      1.000     O          -0.855368           
         O63       1.0000    0.09357   0.20743   0.38533   Biso      1.000     O          -0.9268649999999999           
         O64       1.0000    0.24027   0.11733   0.37693   Biso      1.000     O          -0.874589           
         O65       1.0000    0.60680   0.94610   0.17730   Biso      1.000     O          -0.8944989999999999           
         O66       1.0000    0.65980   0.01020   0.00190   Biso      1.000     O          -0.855247           
         O67       1.0000    0.42690   0.87410   0.05200   Biso      1.000     O          -0.9268700000000001           
         O68       1.0000    0.72653   0.72057   0.48937   Biso      1.000     O          -0.8947510000000001           
         O69       1.0000    0.68373   0.00687   0.66857   Biso      1.000     O          -0.855224           
         O70       1.0000    0.57360   0.78400   0.04360   Biso      1.000     O          -0.8744930000000001           
         O71       1.0000    0.67263   0.05987   0.84397   Biso      1.000     O          -0.8945620000000001           
         O72       1.0000    0.78053   0.23977   0.71867   Biso      1.000     O          -0.926692           
         P1        1.0000    0.32830   0.89790   0.06300   Biso      1.000     P          1.7673    
         P2        1.0000    0.67170   0.10210   0.93700   Biso      1.000     P          1.7673    
         P3        1.0000    0.76373   0.99497   0.60367   Biso      1.000     P          1.767248  
         P4        1.0000    0.89790   0.56960   0.93700   Biso      1.000     P          1.76731   
         P5        1.0000    0.90293   0.33837   0.72967   Biso      1.000     P          1.7669290000000002  
         P6        1.0000    0.99497   0.23123   0.39633   Biso      1.000     P          1.7671729999999999  
         P7        1.0000    0.56457   0.90293   0.27033   Biso      1.000     P          1.767041  
         P8        1.0000    0.00503   0.76877   0.60367   Biso      1.000     P          1.7671729999999999  
         P9        1.0000    0.23123   0.23627   0.60367   Biso      1.000     P          1.767296  
         P10       1.0000    0.33837   0.43543   0.27033   Biso      1.000     P          1.767216  
         P11       1.0000    0.76877   0.76373   0.39633   Biso      1.000     P          1.767296  
         P12       1.0000    0.66163   0.56457   0.72967   Biso      1.000     P          1.767216  
         P13       1.0000    0.23627   0.00503   0.39633   Biso      1.000     P          1.767248  
         P14       1.0000    0.43543   0.09707   0.72967   Biso      1.000     P          1.767041  
         P15       1.0000    0.56960   0.67170   0.06300   Biso      1.000     P          1.767254  
         P16       1.0000    0.10210   0.43040   0.06300   Biso      1.000     P          1.76731   
         P17       1.0000    0.09707   0.66163   0.27033   Biso      1.000     P          1.7669290000000002  
         P18       1.0000    0.43040   0.32830   0.93700   Biso      1.000     P          1.767254 