
##########################################################################
#               Crystallographic Information Format file
#               Produced by PyCifRW module
#
#  This is a CIF file.  CIF has been adopted by the International
#  Union of Crystallography as the standard for data archiving and
#  transmission.
#
#  For information on this file format, follow the CIF links at
#  http://www.iucr.org
##########################################################################

data_image0

_cell_length_a                          11.716
_cell_length_b                          13.693
_cell_length_c                          13.8
_cell_angle_alpha                       90
_cell_angle_beta                        99.44
_cell_angle_gamma                       90
_symmetry_space_group_name_H-M          'P 1'
_symmetry_int_tables_number             1
loop_
  _symmetry_equiv_pos_as_xyz
         'x, y, z' 
loop_
  _atom_site_label
  _atom_site_occupancy
  _atom_site_fract_x
  _atom_site_fract_y
  _atom_site_fract_z
  _atom_site_thermal_displace_type
  _atom_site_B_iso_or_equiv
  _atom_site_type_symbol
  _atom_site_charge
         C1        1.0000    0.95210   0.51470   0.90190   Biso      1.000     C          -0.013755000000000002         
         C2        1.0000    0.04180   0.57380   0.94690   Biso      1.000     C          -0.10033500000000001          
         C3        1.0000    0.90410   0.53000   0.79490   Biso      1.000     C          0.543912  
         C4        1.0000    0.66480   0.87200   0.04390   Biso      1.000     C          0.588229  
         C5        1.0000    0.71580   0.79990   0.12100   Biso      1.000     C          -0.020974           
         C6        1.0000    0.82020   0.75430   0.11360   Biso      1.000     C          -0.101866           
         C7        1.0000    0.87140   0.69270   0.18710   Biso      1.000     C          -0.097584           
         C8        1.0000    0.81890   0.67420   0.26860   Biso      1.000     C          -0.017865           
         C9        1.0000    0.71400   0.71850   0.27470   Biso      1.000     C          -0.102211           
         C10       1.0000    0.66170   0.78120   0.20180   Biso      1.000     C          -0.100023           
         C11       1.0000    0.91110   0.44090   0.95590   Biso      1.000     C          -0.10560599999999999          
         C12       1.0000    0.87620   0.60780   0.34980   Biso      1.000     C          0.609755  
         C13       1.0000    0.54790   0.01470   0.59810   Biso      1.000     C          -0.013753           
         C14       1.0000    0.45820   0.07380   0.55310   Biso      1.000     C          -0.10033500000000001          
         C15       1.0000    0.58890   0.94090   0.54410   Biso      1.000     C          -0.10560599999999999          
         C16       1.0000    0.83520   0.37200   0.45610   Biso      1.000     C          0.5882310000000001  
         C17       1.0000    0.78420   0.29990   0.37900   Biso      1.000     C          -0.020975           
         C18       1.0000    0.67980   0.25430   0.38640   Biso      1.000     C          -0.101864           
         C19       1.0000    0.62860   0.19270   0.31290   Biso      1.000     C          -0.09758700000000001          
         C20       1.0000    0.68110   0.17420   0.23140   Biso      1.000     C          -0.01786  
         C21       1.0000    0.78600   0.21850   0.22530   Biso      1.000     C          -0.102212           
         C22       1.0000    0.59590   0.03000   0.70510   Biso      1.000     C          0.5439109999999999  
         C23       1.0000    0.33520   0.12800   0.95610   Biso      1.000     C          0.58823   
         C24       1.0000    0.28420   0.20010   0.87900   Biso      1.000     C          -0.020974           
         C25       1.0000    0.17980   0.24570   0.88640   Biso      1.000     C          -0.101864           
         C26       1.0000    0.08890   0.55910   0.04410   Biso      1.000     C          -0.1056   
         C27       1.0000    0.95820   0.42620   0.05310   Biso      1.000     C          -0.10032999999999999          
         C28       1.0000    0.04790   0.48530   0.09810   Biso      1.000     C          -0.013755000000000002         
         C29       1.0000    0.09590   0.47000   0.20510   Biso      1.000     C          0.5439    
         C30       1.0000    0.37620   0.89220   0.84980   Biso      1.000     C          0.609754  
         C31       1.0000    0.16170   0.71880   0.70180   Biso      1.000     C          -0.100027           
         C32       1.0000    0.21400   0.78150   0.77470   Biso      1.000     C          -0.10220599999999999          
         C33       1.0000    0.31890   0.82580   0.76860   Biso      1.000     C          -0.017863999999999998         
         C34       1.0000    0.37140   0.80730   0.68710   Biso      1.000     C          -0.097585           
         C35       1.0000    0.32020   0.74570   0.61360   Biso      1.000     C          -0.101864           
         C36       1.0000    0.21580   0.70010   0.62100   Biso      1.000     C          -0.020973           
         C37       1.0000    0.16480   0.62800   0.54390   Biso      1.000     C          0.588232  
         C38       1.0000    0.41110   0.05910   0.45590   Biso      1.000     C          -0.105601           
         C39       1.0000    0.54180   0.92620   0.44690   Biso      1.000     C          -0.10032999999999999          
         C40       1.0000    0.45210   0.98530   0.40190   Biso      1.000     C          -0.013753           
         C41       1.0000    0.40410   0.97000   0.29490   Biso      1.000     C          0.543912  
         C42       1.0000    0.12380   0.39220   0.65020   Biso      1.000     C          0.609753  
         C43       1.0000    0.33830   0.21880   0.79820   Biso      1.000     C          -0.100027           
         C44       1.0000    0.28600   0.28150   0.72530   Biso      1.000     C          -0.10220800000000001          
         C45       1.0000    0.18110   0.32580   0.73140   Biso      1.000     C          -0.017865           
         C46       1.0000    0.12860   0.30730   0.81290   Biso      1.000     C          -0.097585           
         C47       1.0000    0.83830   0.28120   0.29820   Biso      1.000     C          -0.100023           
         C48       1.0000    0.62380   0.10780   0.15020   Biso      1.000     C          0.6097560000000001  
         Eu1       1.0000    0.61352   0.04016   0.91342   Biso      1.000     Eu          1.363949  
         Eu2       1.0000    0.38648   0.95984   0.08658   Biso      1.000     Eu          1.363959  
         Eu3       1.0000    0.88648   0.54016   0.58658   Biso      1.000     Eu          1.363953  
         Eu4       1.0000    0.11352   0.45984   0.41342   Biso      1.000     Eu          1.363958  
         H1        1.0000    0.14880   0.59900   0.07370   Biso      1.000     H          0.122326  
         H2        1.0000    0.85550   0.76550   0.05900   Biso      1.000     H          0.123883  
         H3        1.0000    0.94180   0.66330   0.18220   Biso      1.000     H          0.11611800000000001           
         H4        1.0000    0.67800   0.70590   0.32870   Biso      1.000     H          0.117841  
         H5        1.0000    0.59130   0.81050   0.20680   Biso      1.000     H          0.12153   
         H6        1.0000    0.42990   0.12340   0.58860   Biso      1.000     H          0.121795  
         H7        1.0000    0.64450   0.26550   0.44100   Biso      1.000     H          0.12388199999999999           
         H8        1.0000    0.55820   0.16330   0.31780   Biso      1.000     H          0.116119  
         H9        1.0000    0.82200   0.20590   0.17130   Biso      1.000     H          0.11784000000000001           
         H10       1.0000    0.90870   0.31050   0.29320   Biso      1.000     H          0.121529  
         H11       1.0000    0.64880   0.90100   0.57370   Biso      1.000     H          0.122326  
         H12       1.0000    0.85120   0.40100   0.92630   Biso      1.000     H          0.122325  
         H13       1.0000    0.92990   0.37660   0.08860   Biso      1.000     H          0.121794  
         H14       1.0000    0.07010   0.62340   0.91140   Biso      1.000     H          0.121794  
         H15       1.0000    0.17800   0.79410   0.82870   Biso      1.000     H          0.11784000000000001           
         H16       1.0000    0.44180   0.83670   0.68220   Biso      1.000     H          0.11611800000000001           
         H17       1.0000    0.35550   0.73450   0.55900   Biso      1.000     H          0.12388099999999999           
         H18       1.0000    0.35120   0.09900   0.42630   Biso      1.000     H          0.122326  
         H19       1.0000    0.09130   0.68950   0.70680   Biso      1.000     H          0.121529  
         H20       1.0000    0.40870   0.18950   0.79320   Biso      1.000     H          0.12153   
         H21       1.0000    0.32200   0.29410   0.67130   Biso      1.000     H          0.11783900000000001           
         H22       1.0000    0.05820   0.33670   0.81780   Biso      1.000     H          0.11612   
         H23       1.0000    0.14450   0.23450   0.94100   Biso      1.000     H          0.123883  
         H24       1.0000    0.57010   0.87660   0.41140   Biso      1.000     H          0.121795  
         O1        1.0000    0.27793   0.10144   0.02019   Biso      1.000     O          -0.496291           
         O2        1.0000    0.32501   0.90527   0.92245   Biso      1.000     O          -0.5833659999999999           
         O3        1.0000    0.47124   0.92840   0.83863   Biso      1.000     O          -0.50259  
         O4        1.0000    0.06362   0.59368   0.54572   Biso      1.000     O          -0.597164           
         O5        1.0000    0.22207   0.60144   0.47981   Biso      1.000     O          -0.49629399999999996          
         O6        1.0000    0.33337   0.02971   0.24880   Biso      1.000     O          -0.469289           
         O7        1.0000    0.44027   0.89779   0.25165   Biso      1.000     O          -0.5204449999999999           
         O8        1.0000    0.17499   0.40527   0.57755   Biso      1.000     O          -0.583364           
         O9        1.0000    0.02876   0.42840   0.66137   Biso      1.000     O          -0.502579           
         O10       1.0000    0.43638   0.09368   0.95428   Biso      1.000     O          -0.597158           
         O11       1.0000    0.83337   0.47029   0.74880   Biso      1.000     O          -0.469292           
         O12       1.0000    0.05973   0.39779   0.24835   Biso      1.000     O          -0.520436           
         O13       1.0000    0.67499   0.09473   0.07755   Biso      1.000     O          -0.58336  
         O14       1.0000    0.52876   0.07160   0.16137   Biso      1.000     O          -0.5025930000000001           
         O15       1.0000    0.93638   0.40632   0.45428   Biso      1.000     O          -0.597166           
         O16       1.0000    0.77793   0.39856   0.52019   Biso      1.000     O          -0.49628999999999995          
         O17       1.0000    0.66663   0.97029   0.75120   Biso      1.000     O          -0.469289           
         O18       1.0000    0.55973   0.10221   0.74835   Biso      1.000     O          -0.520433           
         O19       1.0000    0.82501   0.59473   0.42245   Biso      1.000     O          -0.583356           
         O20       1.0000    0.97124   0.57160   0.33863   Biso      1.000     O          -0.502594           
         O21       1.0000    0.56362   0.90632   0.04572   Biso      1.000     O          -0.59716  
         O22       1.0000    0.72207   0.89856   0.97981   Biso      1.000     O          -0.496291           
         O23       1.0000    0.94027   0.60221   0.75165   Biso      1.000     O          -0.52044  
         O24       1.0000    0.16663   0.52971   0.25120   Biso      1.000     O          -0.469272 