
##########################################################################
#               Crystallographic Information Format file
#               Produced by PyCifRW module
#
#  This is a CIF file.  CIF has been adopted by the International
#  Union of Crystallography as the standard for data archiving and
#  transmission.
#
#  For information on this file format, follow the CIF links at
#  http://www.iucr.org
##########################################################################

data_image0

_cell_length_a                          6.6921
_cell_length_b                          13.2239
_cell_length_c                          13.7023
_cell_angle_alpha                       90
_cell_angle_beta                        90
_cell_angle_gamma                       90
_symmetry_space_group_name_H-M          'P 1'
_symmetry_int_tables_number             1
loop_
  _symmetry_equiv_pos_as_xyz
         'x, y, z' 
loop_
  _atom_site_label
  _atom_site_occupancy
  _atom_site_fract_x
  _atom_site_fract_y
  _atom_site_fract_z
  _atom_site_thermal_displace_type
  _atom_site_B_iso_or_equiv
  _atom_site_type_symbol
  _atom_site_charge
         C1        1.0000    0.84150   0.64730   0.13870   Biso      1.000     C          0.717924  
         C2        1.0000    0.45710   0.02560   0.70750   Biso      1.000     C          0.6978260000000001  
         C3        1.0000    0.15850   0.35270   0.86130   Biso      1.000     C          0.717962  
         C4        1.0000    0.05690   0.41290   0.78060   Biso      1.000     C          -0.5484100000000001           
         C5        1.0000    0.04290   0.52560   0.79250   Biso      1.000     C          0.698009  
         C6        1.0000    0.65850   0.64730   0.63870   Biso      1.000     C          0.718051  
         C7        1.0000    0.55690   0.58710   0.71940   Biso      1.000     C          -0.547875           
         C8        1.0000    0.54290   0.47440   0.70750   Biso      1.000     C          0.698     
         C9        1.0000    0.84150   0.14730   0.86130   Biso      1.000     C          0.717726  
         C10       1.0000    0.94310   0.08710   0.78060   Biso      1.000     C          -0.54845  
         C11       1.0000    0.95710   0.97440   0.79250   Biso      1.000     C          0.697937  
         C12       1.0000    0.65850   0.14730   0.36130   Biso      1.000     C          0.717651  
         C13       1.0000    0.55690   0.08710   0.28060   Biso      1.000     C          -0.548596           
         C14       1.0000    0.54290   0.97440   0.29250   Biso      1.000     C          0.697828  
         C15       1.0000    0.94310   0.58710   0.21940   Biso      1.000     C          -0.5483939999999999           
         C16       1.0000    0.95710   0.47440   0.20750   Biso      1.000     C          0.697988  
         C17       1.0000    0.34150   0.35270   0.36130   Biso      1.000     C          0.718058  
         C18       1.0000    0.44310   0.41290   0.28060   Biso      1.000     C          -0.547878           
         C19       1.0000    0.45710   0.52560   0.29250   Biso      1.000     C          0.6980069999999999  
         C20       1.0000    0.15850   0.85270   0.13870   Biso      1.000     C          0.717723  
         C21       1.0000    0.05690   0.91290   0.21940   Biso      1.000     C          -0.548442           
         C22       1.0000    0.04290   0.02560   0.20750   Biso      1.000     C          0.697937  
         C23       1.0000    0.44310   0.91290   0.71940   Biso      1.000     C          -0.548622           
         C24       1.0000    0.34150   0.85270   0.63870   Biso      1.000     C          0.717679  
         Ca1       1.0000    0.00000   0.75000   0.78471   Biso      1.000     Ca          1.442273  
         Ca2       1.0000    0.50000   0.25000   0.71529   Biso      1.000     Ca          1.442225  
         Ca3       1.0000    0.00000   0.25000   0.21529   Biso      1.000     Ca          1.442272  
         Ca4       1.0000    0.50000   0.75000   0.28471   Biso      1.000     Ca          1.442212  
         Cu1       1.0000    0.00000   0.50000   0.00000   Biso      1.000     Cu          0.9275909999999999  
         Cu2       1.0000    0.50000   0.00000   0.50000   Biso      1.000     Cu          0.927687  
         Cu3       1.0000    0.50000   0.50000   0.50000   Biso      1.000     Cu          0.926433  
         Cu4       1.0000    0.00000   0.00000   0.00000   Biso      1.000     Cu          0.9273379999999999  
         H1        1.0000    0.92230   0.88680   0.22700   Biso      1.000     H          0.18918   
         H2        1.0000    0.37260   0.89930   0.77990   Biso      1.000     H          0.161984  
         H3        1.0000    0.57770   0.88680   0.72700   Biso      1.000     H          0.189046  
         H4        1.0000    0.12740   0.39930   0.72010   Biso      1.000     H          0.161856  
         H5        1.0000    0.12740   0.89930   0.27990   Biso      1.000     H          0.162248  
         H6        1.0000    0.62740   0.60070   0.77990   Biso      1.000     H          0.162113  
         H7        1.0000    0.92230   0.38680   0.77300   Biso      1.000     H          0.189115  
         H8        1.0000    0.37260   0.39930   0.22010   Biso      1.000     H          0.162119  
         H9        1.0000    0.07770   0.61320   0.22700   Biso      1.000     H          0.189114  
         H10       1.0000    0.57770   0.38680   0.27300   Biso      1.000     H          0.189165  
         H11       1.0000    0.42230   0.11320   0.27300   Biso      1.000     H          0.18904400000000002           
         H12       1.0000    0.87260   0.60070   0.27990   Biso      1.000     H          0.161852  
         H13       1.0000    0.62740   0.10070   0.22010   Biso      1.000     H          0.16197899999999998           
         H14       1.0000    0.07770   0.11320   0.77300   Biso      1.000     H          0.189181  
         H15       1.0000    0.87260   0.10070   0.72010   Biso      1.000     H          0.162246  
         H16       1.0000    0.42230   0.61320   0.72700   Biso      1.000     H          0.189167  
         O1        1.0000    0.75520   0.22350   0.33680   Biso      1.000     O          -0.61156  
         O2        1.0000    0.56650   0.91930   0.22020   Biso      1.000     O          -0.576824           
         O3        1.0000    0.86720   0.62090   0.05100   Biso      1.000     O          -0.569765           
         O4        1.0000    0.74480   0.72350   0.16320   Biso      1.000     O          -0.611816           
         O5        1.0000    0.49820   0.93380   0.37360   Biso      1.000     O          -0.644253           
         O6        1.0000    0.00180   0.43380   0.12640   Biso      1.000     O          -0.6447890000000001           
         O7        1.0000    0.43350   0.58070   0.22020   Biso      1.000     O          -0.577461           
         O8        1.0000    0.36720   0.37910   0.44900   Biso      1.000     O          -0.569651           
         O9        1.0000    0.24480   0.27650   0.33680   Biso      1.000     O          -0.6124850000000001           
         O10       1.0000    0.50180   0.56620   0.37360   Biso      1.000     O          -0.644983           
         O11       1.0000    0.13280   0.87910   0.05100   Biso      1.000     O          -0.569645           
         O12       1.0000    0.63280   0.12090   0.44900   Biso      1.000     O          -0.5695819999999999           
         O13       1.0000    0.25520   0.77650   0.16320   Biso      1.000     O          -0.611988           
         O14       1.0000    0.93350   0.41930   0.27980   Biso      1.000     O          -0.5770270000000001           
         O15       1.0000    0.93350   0.91930   0.72020   Biso      1.000     O          -0.577072           
         O16       1.0000    0.13280   0.37910   0.94900   Biso      1.000     O          -0.569779           
         O17       1.0000    0.74480   0.22350   0.83680   Biso      1.000     O          -0.611996           
         O18       1.0000    0.86720   0.12090   0.94900   Biso      1.000     O          -0.56965  
         O19       1.0000    0.56650   0.41930   0.77980   Biso      1.000     O          -0.577468           
         O20       1.0000    0.49820   0.43380   0.62640   Biso      1.000     O          -0.644995           
         O21       1.0000    0.75520   0.72350   0.66320   Biso      1.000     O          -0.612483           
         O22       1.0000    0.63280   0.62090   0.55100   Biso      1.000     O          -0.569671           
         O23       1.0000    0.06650   0.58070   0.72020   Biso      1.000     O          -0.577034           
         O24       1.0000    0.99820   0.56620   0.87360   Biso      1.000     O          -0.6448050000000001           
         O25       1.0000    0.25520   0.27650   0.83680   Biso      1.000     O          -0.61183  
         O26       1.0000    0.43350   0.08070   0.77980   Biso      1.000     O          -0.5768300000000001           
         O27       1.0000    0.50180   0.06620   0.62640   Biso      1.000     O          -0.644243           
         O28       1.0000    0.24480   0.77650   0.66320   Biso      1.000     O          -0.6115619999999999           
         O29       1.0000    0.36720   0.87910   0.55100   Biso      1.000     O          -0.569581           
         O30       1.0000    0.99820   0.06620   0.12640   Biso      1.000     O          -0.644587           
         O31       1.0000    0.00180   0.93380   0.87360   Biso      1.000     O          -0.644592           
         O32       1.0000    0.06650   0.08070   0.27980   Biso      1.000     O          -0.577072 