
##########################################################################
#               Crystallographic Information Format file
#               Produced by PyCifRW module
#
#  This is a CIF file.  CIF has been adopted by the International
#  Union of Crystallography as the standard for data archiving and
#  transmission.
#
#  For information on this file format, follow the CIF links at
#  http://www.iucr.org
##########################################################################

data_image0

_cell_length_a                          11.0711
_cell_length_b                          11.0711
_cell_length_c                          11.6224
_cell_angle_alpha                       117.998
_cell_angle_beta                        117.998
_cell_angle_gamma                       90.8234
_symmetry_space_group_name_H-M          'P 1'
_symmetry_int_tables_number             1
loop_
  _symmetry_equiv_pos_as_xyz
         'x, y, z' 
loop_
  _atom_site_label
  _atom_site_occupancy
  _atom_site_fract_x
  _atom_site_fract_y
  _atom_site_fract_z
  _atom_site_thermal_displace_type
  _atom_site_B_iso_or_equiv
  _atom_site_type_symbol
  _atom_site_charge
         C1        1.0000    0.16150   0.17650   0.20880   Biso      1.000     C          -0.525042           
         C2        1.0000    0.73700   0.89440   0.69580   Biso      1.000     C          0.323712  
         C3        1.0000    0.82350   0.83850   0.79120   Biso      1.000     C          -0.525042           
         C4        1.0000    0.58140   0.85400   0.63800   Biso      1.000     C          -0.529899           
         C5        1.0000    0.88300   0.12100   0.78220   Biso      1.000     C          0.581851  
         C6        1.0000    0.10560   0.26300   0.30420   Biso      1.000     C          0.323712  
         C7        1.0000    0.14600   0.41860   0.36200   Biso      1.000     C          -0.529899           
         C8        1.0000    0.87900   0.11700   0.21780   Biso      1.000     C          0.581851  
         C9        1.0000    0.35080   0.08880   0.71780   Biso      1.000     C          0.581374  
         C10       1.0000    0.20270   0.71770   0.29120   Biso      1.000     C          -0.525112           
         C11       1.0000    0.03400   0.80660   0.13800   Biso      1.000     C          -0.5294439999999999           
         C12       1.0000    0.91120   0.64920   0.28220   Biso      1.000     C          0.581374  
         C13       1.0000    0.29120   0.94860   0.80420   Biso      1.000     C          0.322261  
         C14       1.0000    0.28230   0.79730   0.70880   Biso      1.000     C          -0.525111           
         C15       1.0000    0.19340   0.96600   0.86200   Biso      1.000     C          -0.529446           
         C16       1.0000    0.05140   0.70880   0.19580   Biso      1.000     C          0.322261  
         H1        1.0000    0.31880   0.75720   0.77360   Biso      1.000     H          0.16556400000000002           
         H2        1.0000    0.21720   0.92540   0.92600   Biso      1.000     H          0.164271  
         H3        1.0000    0.20500   0.06840   0.92420   Biso      1.000     H          0.157852  
         H4        1.0000    0.33990   0.79270   0.66440   Biso      1.000     H          0.157131  
         H5        1.0000    0.09390   0.91630   0.77400   Biso      1.000     H          0.15185   
         H6        1.0000    0.39230   0.00410   0.89360   Biso      1.000     H          0.050054  
         H7        1.0000    0.18210   0.74170   0.62520   Biso      1.000     H          0.150662  
         H8        1.0000    0.93160   0.79500   0.07580   Biso      1.000     H          0.157852  
         H9        1.0000    0.74870   0.86050   0.60640   Biso      1.000     H          0.049963  
         H10       1.0000    0.80690   0.86650   0.87480   Biso      1.000     H          0.150313  
         H11       1.0000    0.92550   0.87830   0.83560   Biso      1.000     H          0.15717   
         H12       1.0000    0.79520   0.73360   0.72640   Biso      1.000     H          0.16556400000000002           
         H13       1.0000    0.54120   0.74940   0.57400   Biso      1.000     H          0.163243  
         H14       1.0000    0.53080   0.89420   0.57580   Biso      1.000     H          0.158073  
         H15       1.0000    0.56990   0.89230   0.72600   Biso      1.000     H          0.152359  
         H16       1.0000    0.13950   0.25130   0.39360   Biso      1.000     H          0.049963  
         H17       1.0000    0.08370   0.90610   0.22600   Biso      1.000     H          0.15185   
         H18       1.0000    0.12170   0.07450   0.16440   Biso      1.000     H          0.15717   
         H19       1.0000    0.13350   0.19310   0.12520   Biso      1.000     H          0.150313  
         H20       1.0000    0.25060   0.45880   0.42600   Biso      1.000     H          0.163243  
         H21       1.0000    0.10580   0.46920   0.42420   Biso      1.000     H          0.158073  
         H22       1.0000    0.10770   0.43010   0.27400   Biso      1.000     H          0.152359  
         H23       1.0000    0.99590   0.60770   0.10640   Biso      1.000     H          0.050054  
         H24       1.0000    0.25830   0.81790   0.37480   Biso      1.000     H          0.150662  
         H25       1.0000    0.20730   0.66010   0.33560   Biso      1.000     H          0.157131  
         H26       1.0000    0.24280   0.68120   0.22640   Biso      1.000     H          0.16556400000000002           
         H27       1.0000    0.07460   0.78280   0.07400   Biso      1.000     H          0.164271  
         H28       1.0000    0.26640   0.20480   0.27360   Biso      1.000     H          0.16556400000000002           
         O1        1.0000    0.47570   0.11650   0.81420   Biso      1.000     O          -0.5727260000000001           
         O2        1.0000    0.94720   0.21140   0.20660   Biso      1.000     O          -0.33269099999999996          
         O3        1.0000    0.24520   0.00940   0.70660   Biso      1.000     O          -0.331937           
         O4        1.0000    0.78860   0.05280   0.79340   Biso      1.000     O          -0.33269099999999996          
         O5        1.0000    0.91150   0.05230   0.68580   Biso      1.000     O          -0.5726939999999999           
         O6        1.0000    0.94770   0.08850   0.31420   Biso      1.000     O          -0.5726939999999999           
         O7        1.0000    0.99060   0.75480   0.29340   Biso      1.000     O          -0.331937           
         O8        1.0000    0.88350   0.52430   0.18580   Biso      1.000     O          -0.5727260000000001           
         S1        1.0000    0.28455   0.14011   0.58846   Biso      1.000     S          -0.6336890000000001           
         S2        1.0000    0.94609   0.30165   0.91154   Biso      1.000     S          -0.633861           
         S3        1.0000    0.69835   0.05391   0.08846   Biso      1.000     S          -0.633861           
         S4        1.0000    0.85989   0.71545   0.41154   Biso      1.000     S          -0.633688           
         Sr1       1.0000    0.98354   0.01646   0.50000   Biso      1.000     Sr          1.383838  
         Sr2       1.0000    0.73354   0.26646   0.00000   Biso      1.000     Sr          1.383818 