
##########################################################################
#               Crystallographic Information Format file
#               Produced by PyCifRW module
#
#  This is a CIF file.  CIF has been adopted by the International
#  Union of Crystallography as the standard for data archiving and
#  transmission.
#
#  For information on this file format, follow the CIF links at
#  http://www.iucr.org
##########################################################################

data_image0

_cell_length_a                          11.102
_cell_length_b                          15.9004
_cell_length_c                          15.9004
_cell_angle_alpha                       65.2444
_cell_angle_beta                        76.5416
_cell_angle_gamma                       103.458
_symmetry_space_group_name_H-M          'P 1'
_symmetry_int_tables_number             1
loop_
  _symmetry_equiv_pos_as_xyz
         'x, y, z' 
loop_
  _atom_site_label
  _atom_site_occupancy
  _atom_site_fract_x
  _atom_site_fract_y
  _atom_site_fract_z
  _atom_site_thermal_displace_type
  _atom_site_B_iso_or_equiv
  _atom_site_type_symbol
  _atom_site_charge
         C1        1.0000    0.45486   0.16538   0.11860   Biso      1.000     C          -0.05871900000000001          
         C2        1.0000    0.48766   0.44625   0.88974   Biso      1.000     C          0.567133  
         C3        1.0000    0.55357   0.25138   0.09597   Biso      1.000     C          -0.19478800000000002          
         C4        1.0000    0.96298   0.31581   0.02457   Biso      1.000     C          -0.09239800000000001          
         C5        1.0000    0.37949   0.26212   0.99625   Biso      1.000     C          -0.092597           
         C6        1.0000    0.39874   0.33784   0.59714   Biso      1.000     C          -0.10278  
         C7        1.0000    0.71052   0.28398   0.83462   Biso      1.000     C          -0.05677000000000001          
         C8        1.0000    0.71461   0.55748   0.47515   Biso      1.000     C          0.153499  
         C9        1.0000    0.28948   0.71602   0.16538   Biso      1.000     C          -0.056771           
         C10       1.0000    0.35283   0.34038   0.68419   Biso      1.000     C          -0.089568           
         C11       1.0000    0.63569   0.61258   0.48348   Biso      1.000     C          -0.094484           
         C12       1.0000    0.22241   0.63411   0.34342   Biso      1.000     C          0.142663  
         C13       1.0000    0.77759   0.36589   0.65658   Biso      1.000     C          0.142657  
         C14       1.0000    0.76221   0.55583   0.38740   Biso      1.000     C          -0.143735           
         C15       1.0000    0.11737   0.74163   0.26212   Biso      1.000     C          -0.091567           
         C16       1.0000    0.60126   0.66216   0.40286   Biso      1.000     C          -0.102779           
         C17       1.0000    0.97689   0.09606   0.38742   Biso      1.000     C          -0.095416           
         C18       1.0000    0.87933   0.91501   0.39282   Biso      1.000     C          -0.049848           
         C19       1.0000    0.84079   0.42395   0.19417   Biso      1.000     C          0.601136  
         C20       1.0000    0.44986   0.97038   0.68000   Biso      1.000     C          -0.079598           
         C21       1.0000    0.52052   0.65038   0.02962   Biso      1.000     C          -0.079677           
         C22       1.0000    0.62051   0.73788   0.00375   Biso      1.000     C          -0.09259500000000001          
         C23       1.0000    0.88083   0.51652   0.09606   Biso      1.000     C          -0.094068           
         C24       1.0000    0.47948   0.34962   0.97038   Biso      1.000     C          -0.079674           
         C25       1.0000    0.00412   0.40286   0.93498   Biso      1.000     C          -0.10166599999999999          
         C26       1.0000    0.11917   0.48348   0.90394   Biso      1.000     C          -0.094067           
         C27       1.0000    0.43417   0.65658   0.97753   Biso      1.000     C          0.142413  
         C28       1.0000    0.81024   0.52485   0.03263   Biso      1.000     C          0.152419  
         C29       1.0000    0.99588   0.59714   0.06502   Biso      1.000     C          -0.10167000000000001          
         C30       1.0000    0.54514   0.83462   0.88140   Biso      1.000     C          -0.05871900000000001          
         C31       1.0000    0.44643   0.74862   0.90403   Biso      1.000     C          -0.194787           
         C32       1.0000    0.14961   0.38740   0.05677   Biso      1.000     C          -0.144954           
         C33       1.0000    0.18976   0.47515   0.96737   Biso      1.000     C          0.152425  
         C34       1.0000    0.36739   0.17064   0.06947   Biso      1.000     C          -0.100428           
         C35       1.0000    0.51234   0.55375   0.11026   Biso      1.000     C          0.567132  
         C36       1.0000    0.96432   0.69217   0.91501   Biso      1.000     C          -0.049819999999999996         
         C37       1.0000    0.63261   0.82936   0.93053   Biso      1.000     C          -0.100428           
         C38       1.0000    0.56583   0.34342   0.02247   Biso      1.000     C          0.14241800000000002           
         C39       1.0000    0.85039   0.61260   0.94323   Biso      1.000     C          -0.144948           
         C40       1.0000    0.03702   0.68419   0.97543   Biso      1.000     C          -0.09238500000000001          
         C41       1.0000    0.03568   0.30783   0.08499   Biso      1.000     C          -0.049806           
         C42       1.0000    0.02311   0.90394   0.61258   Biso      1.000     C          -0.095416           
         C43       1.0000    0.15713   0.96737   0.55748   Biso      1.000     C          0.15176099999999998           
         C44       1.0000    0.43686   0.06947   0.75989   Biso      1.000     C          -0.101246           
         C45       1.0000    0.72785   0.60718   0.30783   Biso      1.000     C          -0.051660000000000005         
         C46       1.0000    0.95859   0.33599   0.55375   Biso      1.000     C          0.56682   
         C47       1.0000    0.12986   0.68000   0.34962   Biso      1.000     C          -0.077679           
         C48       1.0000    0.36431   0.38742   0.51652   Biso      1.000     C          -0.094485           
         C49       1.0000    0.64717   0.65962   0.31581   Biso      1.000     C          -0.089567           
         C50       1.0000    0.23779   0.44417   0.61260   Biso      1.000     C          -0.143736           
         C51       1.0000    0.58316   0.61812   0.57605   Biso      1.000     C          0.600762  
         C52       1.0000    0.55014   0.02962   0.32000   Biso      1.000     C          -0.079598           
         C53       1.0000    0.28539   0.44252   0.52485   Biso      1.000     C          0.153495  
         C54       1.0000    0.19675   0.75989   0.17064   Biso      1.000     C          -0.103148           
         C55       1.0000    0.80325   0.24011   0.82936   Biso      1.000     C          -0.103149           
         C56       1.0000    0.04141   0.66401   0.44625   Biso      1.000     C          0.566821  
         C57       1.0000    0.88263   0.25837   0.73788   Biso      1.000     C          -0.091565           
         C58       1.0000    0.41684   0.38188   0.42395   Biso      1.000     C          0.600761  
         C59       1.0000    0.27215   0.39282   0.69217   Biso      1.000     C          -0.051659000000000004         
         C60       1.0000    0.30219   0.65265   0.25138   Biso      1.000     C          -0.195666           
         C61       1.0000    0.87014   0.32000   0.65038   Biso      1.000     C          -0.07768  
         C62       1.0000    0.69781   0.34735   0.74862   Biso      1.000     C          -0.195665           
         C63       1.0000    0.56314   0.93053   0.24011   Biso      1.000     C          -0.101246           
         C64       1.0000    0.79362   0.94323   0.44417   Biso      1.000     C          -0.14297100000000001          
         C65       1.0000    0.35046   0.90403   0.34735   Biso      1.000     C          -0.19183  
         C66       1.0000    0.37574   0.99625   0.74163   Biso      1.000     C          -0.092333           
         C67       1.0000    0.96504   0.80583   0.61812   Biso      1.000     C          0.603506  
         C68       1.0000    0.12067   0.08499   0.60718   Biso      1.000     C          -0.049848           
         C69       1.0000    0.62260   0.11026   0.33599   Biso      1.000     C          0.569444  
         C70       1.0000    0.37740   0.88974   0.66401   Biso      1.000     C          0.569444  
         C71       1.0000    0.58830   0.02247   0.63411   Biso      1.000     C          0.143044  
         C72       1.0000    0.06090   0.06502   0.33784   Biso      1.000     C          -0.099268           
         C73       1.0000    0.41170   0.97753   0.36589   Biso      1.000     C          0.143044  
         C74       1.0000    0.84287   0.03263   0.44252   Biso      1.000     C          0.15176099999999998           
         C75       1.0000    0.03496   0.19417   0.38188   Biso      1.000     C          0.603506  
         C76       1.0000    0.93910   0.93498   0.66216   Biso      1.000     C          -0.099268           
         C77       1.0000    0.98755   0.02457   0.65962   Biso      1.000     C          -0.093159           
         C78       1.0000    0.42654   0.88140   0.28398   Biso      1.000     C          -0.058846           
         C79       1.0000    0.62426   0.00375   0.25837   Biso      1.000     C          -0.092333           
         C80       1.0000    0.01245   0.97543   0.34038   Biso      1.000     C          -0.093159           
         C81       1.0000    0.64954   0.09597   0.65265   Biso      1.000     C          -0.191831           
         C82       1.0000    0.20638   0.05677   0.55583   Biso      1.000     C          -0.14297  
         C83       1.0000    0.57346   0.11860   0.71602   Biso      1.000     C          -0.058846           
         C84       1.0000    0.15921   0.57605   0.80583   Biso      1.000     C          0.601136  
         Cd1       1.0000    0.14025   0.36829   0.38868   Biso      1.000     Cd          1.001428  
         Cd2       1.0000    0.85975   0.63171   0.61132   Biso      1.000     Cd          1.0014319999999999  
         Cd3       1.0000    0.22804   0.75697   0.63171   Biso      1.000     Cd          1.001577  
         Cd4       1.0000    0.52893   0.38868   0.24303   Biso      1.000     Cd          1.000968  
         Cd5       1.0000    0.77196   0.24303   0.36829   Biso      1.000     Cd          1.001577  
         Cd6       1.0000    0.47107   0.61132   0.75697   Biso      1.000     Cd          1.0009709999999998  
         H1        1.0000    0.34380   0.72910   0.10370   Biso      1.000     H          0.099118  
         H2        1.0000    0.75930   0.60620   0.24880   Biso      1.000     H          0.11373499999999999           
         H3        1.0000    0.37650   0.30670   0.73760   Biso      1.000     H          0.107386  
         H4        1.0000    0.65620   0.27090   0.89630   Biso      1.000     H          0.099118  
         H5        1.0000    0.18760   0.80170   0.11270   Biso      1.000     H          0.111724  
         H6        1.0000    0.05460   0.77110   0.26510   Biso      1.000     H          0.120021  
         H7        1.0000    0.45350   0.30250   0.59240   Biso      1.000     H          0.11511300000000001           
         H8        1.0000    0.36400   0.62250   0.24760   Biso      1.000     H          0.126325  
         H9        1.0000    0.54650   0.69750   0.40760   Biso      1.000     H          0.11511300000000001           
         H10       1.0000    0.81680   0.52040   0.38200   Biso      1.000     H          0.13466   
         H11       1.0000    0.62350   0.69330   0.26240   Biso      1.000     H          0.107386  
         H12       1.0000    0.93020   0.04430   0.69330   Biso      1.000     H          0.109003  
         H13       1.0000    0.70360   0.90240   0.47960   Biso      1.000     H          0.134456  
         H14       1.0000    0.61160   0.24760   0.12990   Biso      1.000     H          0.126495  
         H15       1.0000    0.25850   0.87010   0.37750   Biso      1.000     H          0.12503499999999998           
         H16       1.0000    0.74150   0.12990   0.62250   Biso      1.000     H          0.12503499999999998           
         H17       1.0000    0.84900   0.89490   0.69750   Biso      1.000     H          0.11350899999999998           
         H18       1.0000    0.28350   0.96380   0.77110   Biso      1.000     H          0.12023199999999999           
         H19       1.0000    0.15100   0.10510   0.30250   Biso      1.000     H          0.11350899999999998           
         H20       1.0000    0.61470   0.16720   0.72910   Biso      1.000     H          0.098768  
         H21       1.0000    0.38590   0.08560   0.80170   Biso      1.000     H          0.11093800000000001           
         H22       1.0000    0.61410   0.91440   0.19830   Biso      1.000     H          0.11093800000000001           
         H23       1.0000    0.84690   0.85500   0.39380   Biso      1.000     H          0.11283800000000001           
         H24       1.0000    0.06980   0.95570   0.30670   Biso      1.000     H          0.109003  
         H25       1.0000    0.15310   0.14500   0.60620   Biso      1.000     H          0.11283800000000001           
         H26       1.0000    0.38530   0.83280   0.27090   Biso      1.000     H          0.09876900000000001           
         H27       1.0000    0.29640   0.09760   0.52040   Biso      1.000     H          0.134456  
         H28       1.0000    0.71650   0.03620   0.22890   Biso      1.000     H          0.12023199999999999           
         H29       1.0000    0.18320   0.47960   0.61800   Biso      1.000     H          0.13466   
         H30       1.0000    0.63600   0.37750   0.75240   Biso      1.000     H          0.126325  
         H31       1.0000    0.24070   0.39380   0.75120   Biso      1.000     H          0.11373399999999999           
         H32       1.0000    0.81240   0.19830   0.88730   Biso      1.000     H          0.111724  
         H33       1.0000    0.19880   0.38200   0.09760   Biso      1.000     H          0.13578199999999999           
         H34       1.0000    0.30030   0.11270   0.08560   Biso      1.000     H          0.11061300000000002           
         H35       1.0000    0.44750   0.10370   0.16720   Biso      1.000     H          0.099251  
         H36       1.0000    0.88590   0.26240   0.04430   Biso      1.000     H          0.108623  
         H37       1.0000    0.04590   0.59240   0.10510   Biso      1.000     H          0.114933  
         H38       1.0000    0.68030   0.73490   0.03620   Biso      1.000     H          0.120975  
         H39       1.0000    0.00810   0.24880   0.14500   Biso      1.000     H          0.11312799999999999           
         H40       1.0000    0.69970   0.88730   0.91440   Biso      1.000     H          0.11061300000000002           
         H41       1.0000    0.80120   0.61800   0.90240   Biso      1.000     H          0.13578199999999999           
         H42       1.0000    0.99190   0.75120   0.85500   Biso      1.000     H          0.113129  
         H43       1.0000    0.38840   0.75240   0.87010   Biso      1.000     H          0.126495  
         H44       1.0000    0.11410   0.73760   0.95570   Biso      1.000     H          0.108622  
         H45       1.0000    0.31970   0.26510   0.96380   Biso      1.000     H          0.120975  
         H46       1.0000    0.95410   0.40760   0.89490   Biso      1.000     H          0.114933  
         H47       1.0000    0.94540   0.22890   0.73490   Biso      1.000     H          0.120021  
         H48       1.0000    0.55250   0.89630   0.83280   Biso      1.000     H          0.099251  
         N1        1.0000    0.74976   0.50448   0.55850   Biso      1.000     N          -0.11655599999999999          
         N2        1.0000    0.24879   0.57785   0.42978   Biso      1.000     N          -0.040431           
         N3        1.0000    0.75472   0.06298   0.49552   Biso      1.000     N          -0.11536400000000001          
         N4        1.0000    0.67094   0.99237   0.57785   Biso      1.000     N          -0.041195999999999997         
         N5        1.0000    0.24528   0.93702   0.50448   Biso      1.000     N          -0.11536400000000001          
         N6        1.0000    0.32906   0.00763   0.42215   Biso      1.000     N          -0.041195999999999997         
         N7        1.0000    0.67857   0.42978   0.99237   Biso      1.000     N          -0.039048           
         N8        1.0000    0.69174   0.44150   0.06298   Biso      1.000     N          -0.116781           
         N9        1.0000    0.25024   0.49552   0.44150   Biso      1.000     N          -0.116475           
         N10       1.0000    0.75121   0.42215   0.57022   Biso      1.000     N          -0.040354           
         N11       1.0000    0.30826   0.55850   0.93702   Biso      1.000     N          -0.11686099999999999          
         N12       1.0000    0.32143   0.57022   0.00763   Biso      1.000     N          -0.038973           
         O1        1.0000    0.84451   0.77184   0.63261   Biso      1.000     O          -0.525079           
         O2        1.0000    0.03367   0.28711   0.55803   Biso      1.000     O          -0.562983           
         O3        1.0000    0.95727   0.39714   0.47222   Biso      1.000     O          -0.5549430000000001           
         O4        1.0000    0.56013   0.13064   0.39714   Biso      1.000     O          -0.555693           
         O5        1.0000    0.04273   0.60286   0.52778   Biso      1.000     O          -0.55494  
         O6        1.0000    0.35535   0.39190   0.36494   Biso      1.000     O          -0.588233           
         O7        1.0000    0.64465   0.60810   0.63506   Biso      1.000     O          -0.588232           
         O8        1.0000    0.47712   0.63261   0.59555   Biso      1.000     O          -0.522982           
         O9        1.0000    0.40830   0.44197   0.84514   Biso      1.000     O          -0.56234  
         O10       1.0000    0.07267   0.59555   0.77184   Biso      1.000     O          -0.522682           
         O11       1.0000    0.92733   0.40445   0.22816   Biso      1.000     O          -0.522682           
         O12       1.0000    0.42949   0.47222   0.13064   Biso      1.000     O          -0.554894           
         O13       1.0000    0.27971   0.63506   0.75684   Biso      1.000     O          -0.589467           
         O14       1.0000    0.03655   0.75684   0.60810   Biso      1.000     O          -0.588396           
         O15       1.0000    0.72029   0.36494   0.24316   Biso      1.000     O          -0.5894689999999999           
         O16       1.0000    0.52288   0.36739   0.40445   Biso      1.000     O          -0.522981           
         O17       1.0000    0.59170   0.55803   0.15486   Biso      1.000     O          -0.56234  
         O18       1.0000    0.74656   0.15486   0.28711   Biso      1.000     O          -0.5635819999999999           
         O19       1.0000    0.96345   0.24316   0.39190   Biso      1.000     O          -0.588395           
         O20       1.0000    0.25344   0.84514   0.71289   Biso      1.000     O          -0.5635819999999999           
         O21       1.0000    0.15549   0.22816   0.36739   Biso      1.000     O          -0.525079           
         O22       1.0000    0.43987   0.86936   0.60286   Biso      1.000     O          -0.555693           
         O23       1.0000    0.57051   0.52778   0.86936   Biso      1.000     O          -0.554892           
         O24       1.0000    0.96633   0.71289   0.44197   Biso      1.000     O          -0.562983 