
##########################################################################
#               Crystallographic Information Format file
#               Produced by PyCifRW module
#
#  This is a CIF file.  CIF has been adopted by the International
#  Union of Crystallography as the standard for data archiving and
#  transmission.
#
#  For information on this file format, follow the CIF links at
#  http://www.iucr.org
##########################################################################

data_image0

_cell_length_a                          8.7635
_cell_length_b                          11.4678
_cell_length_c                          11.4678
_cell_angle_alpha                       106.056
_cell_angle_beta                        103.826
_cell_angle_gamma                       76.1737
_symmetry_space_group_name_H-M          'P 1'
_symmetry_int_tables_number             1
loop_
  _symmetry_equiv_pos_as_xyz
         'x, y, z' 
loop_
  _atom_site_label
  _atom_site_occupancy
  _atom_site_fract_x
  _atom_site_fract_y
  _atom_site_fract_z
  _atom_site_thermal_displace_type
  _atom_site_B_iso_or_equiv
  _atom_site_type_symbol
  _atom_site_charge
         C1        1.0000    0.95990   0.14482   0.34698   Biso      1.000     C          0.5981609999999999  
         C2        1.0000    0.73200   0.42015   0.06571   Biso      1.000     C          0.07180399999999999           
         C3        1.0000    0.80970   0.42019   0.76697   Biso      1.000     C          0.565083  
         C4        1.0000    0.54010   0.34698   0.14482   Biso      1.000     C          0.5981609999999999  
         C5        1.0000    0.88970   0.82464   0.32776   Biso      1.000     C          -0.118342           
         C6        1.0000    0.95470   0.91672   0.31028   Biso      1.000     C          -0.044032           
         C7        1.0000    0.89450   0.03944   0.35824   Biso      1.000     C          -0.035358           
         C8        1.0000    0.76800   0.06571   0.42015   Biso      1.000     C          0.071802  
         C9        1.0000    0.69030   0.76697   0.42019   Biso      1.000     C          0.565094  
         C10       1.0000    0.26490   0.60903   0.14081   Biso      1.000     C          0.08884   
         C11       1.0000    0.38970   0.67224   0.17536   Biso      1.000     C          -0.118371           
         C12       1.0000    0.60550   0.35824   0.03944   Biso      1.000     C          -0.035371           
         C13       1.0000    0.45470   0.68972   0.08328   Biso      1.000     C          -0.044059           
         C14       1.0000    0.26800   0.57985   0.93429   Biso      1.000     C          0.071793  
         C15       1.0000    0.19030   0.57981   0.23303   Biso      1.000     C          0.565075  
         C16       1.0000    0.45990   0.65302   0.85518   Biso      1.000     C          0.598172  
         C17       1.0000    0.23510   0.14081   0.60903   Biso      1.000     C          0.088849  
         C18       1.0000    0.11030   0.17536   0.67224   Biso      1.000     C          -0.118349           
         C19       1.0000    0.04530   0.08328   0.68972   Biso      1.000     C          -0.044035000000000005         
         C20       1.0000    0.10550   0.96056   0.64176   Biso      1.000     C          -0.035349           
         C21       1.0000    0.23200   0.93429   0.57985   Biso      1.000     C          0.071793  
         C22       1.0000    0.30970   0.23303   0.57981   Biso      1.000     C          0.5650850000000001  
         C23       1.0000    0.04010   0.85518   0.65302   Biso      1.000     C          0.598158  
         C24       1.0000    0.39450   0.64176   0.96056   Biso      1.000     C          -0.035371           
         C25       1.0000    0.54530   0.31028   0.91672   Biso      1.000     C          -0.044054           
         C26       1.0000    0.76490   0.85919   0.39097   Biso      1.000     C          0.088866  
         C27       1.0000    0.73510   0.39097   0.85919   Biso      1.000     C          0.08884700000000001           
         C28       1.0000    0.61030   0.32776   0.82464   Biso      1.000     C          -0.11836400000000001          
         H1        1.0000    0.47570   0.30630   0.45990   Biso      1.000     H          0.43699799999999994           
         H2        1.0000    0.46390   0.34730   0.35510   Biso      1.000     H          0.45099300000000003           
         H3        1.0000    0.57030   0.29730   0.74170   Biso      1.000     H          0.129694  
         H4        1.0000    0.46200   0.26670   0.89590   Biso      1.000     H          0.12750999999999998           
         H5        1.0000    0.02430   0.45990   0.30630   Biso      1.000     H          0.43700100000000003           
         H6        1.0000    0.03610   0.35510   0.34730   Biso      1.000     H          0.45097299999999996           
         H7        1.0000    0.92970   0.74170   0.29730   Biso      1.000     H          0.129712  
         H8        1.0000    0.03800   0.89590   0.26670   Biso      1.000     H          0.12751700000000002           
         H9        1.0000    0.72650   0.14790   0.45270   Biso      1.000     H          0.10364300000000001           
         H10       1.0000    0.52430   0.69370   0.54010   Biso      1.000     H          0.436997  
         H11       1.0000    0.77350   0.45270   0.14790   Biso      1.000     H          0.10363599999999999           
         H12       1.0000    0.53610   0.65270   0.64490   Biso      1.000     H          0.45100500000000004           
         H13       1.0000    0.96200   0.10410   0.73330   Biso      1.000     H          0.12753699999999998           
         H14       1.0000    0.07030   0.25830   0.70270   Biso      1.000     H          0.129709  
         H15       1.0000    0.96390   0.64490   0.65270   Biso      1.000     H          0.45098   
         H16       1.0000    0.27350   0.85210   0.54730   Biso      1.000     H          0.103647  
         H17       1.0000    0.22650   0.54730   0.85210   Biso      1.000     H          0.10364100000000001           
         H18       1.0000    0.53800   0.73330   0.10410   Biso      1.000     H          0.12751800000000002           
         H19       1.0000    0.42970   0.70270   0.25830   Biso      1.000     H          0.129689  
         H20       1.0000    0.97570   0.54010   0.69370   Biso      1.000     H          0.436996  
         N1        1.0000    0.79670   0.43477   0.97765   Biso      1.000     N          -0.192055           
         N2        1.0000    0.70330   0.97765   0.43477   Biso      1.000     N          -0.192049           
         N3        1.0000    0.20330   0.56523   0.02235   Biso      1.000     N          -0.192056           
         N4        1.0000    0.29670   0.02235   0.56523   Biso      1.000     N          -0.192053           
         Ni1       1.0000    0.50000   0.00000   0.50000   Biso      1.000     Ni          0.525165  
         Ni2       1.0000    0.00000   0.50000   0.00000   Biso      1.000     Ni          0.5250729999999999  
         O1        1.0000    0.06930   0.52770   0.18732   Biso      1.000     O          -0.48287700000000006          
         O2        1.0000    0.57360   0.70777   0.87783   Biso      1.000     O          -0.582491           
         O3        1.0000    0.24840   0.60742   0.34348   Biso      1.000     O          -0.53945  
         O4        1.0000    0.39610   0.60459   0.75035   Biso      1.000     O          -0.676649           
         O5        1.0000    0.92640   0.87783   0.70777   Biso      1.000     O          -0.58248  
         O6        1.0000    0.43070   0.18732   0.52770   Biso      1.000     O          -0.482832           
         O7        1.0000    0.25160   0.34348   0.60742   Biso      1.000     O          -0.539388           
         O8        1.0000    0.03280   0.43269   0.36977   Biso      1.000     O          -0.9041110000000001           
         O9        1.0000    0.53280   0.63023   0.56731   Biso      1.000     O          -0.904134           
         O10       1.0000    0.89610   0.24965   0.39541   Biso      1.000     O          -0.6765760000000001           
         O11       1.0000    0.96720   0.56731   0.63023   Biso      1.000     O          -0.904119           
         O12       1.0000    0.74840   0.65652   0.39258   Biso      1.000     O          -0.5393899999999999           
         O13       1.0000    0.56930   0.81268   0.47230   Biso      1.000     O          -0.48282299999999995          
         O14       1.0000    0.46720   0.36977   0.43269   Biso      1.000     O          -0.904127           
         O15       1.0000    0.60390   0.39541   0.24965   Biso      1.000     O          -0.676619           
         O16       1.0000    0.42640   0.29223   0.12217   Biso      1.000     O          -0.582383           
         O17       1.0000    0.75160   0.39258   0.65652   Biso      1.000     O          -0.539454           
         O18       1.0000    0.93070   0.47230   0.81268   Biso      1.000     O          -0.482867           
         O19       1.0000    0.10390   0.75035   0.60459   Biso      1.000     O          -0.676646           
         O20       1.0000    0.07360   0.12217   0.29223   Biso      1.000     O          -0.582322           
         Sr1       1.0000    0.25000   0.53835   0.53835   Biso      1.000     Sr          1.479906  
         Sr2       1.0000    0.75000   0.46165   0.46165   Biso      1.000     Sr          1.479881 