
##########################################################################
#               Crystallographic Information Format file
#               Produced by PyCifRW module
#
#  This is a CIF file.  CIF has been adopted by the International
#  Union of Crystallography as the standard for data archiving and
#  transmission.
#
#  For information on this file format, follow the CIF links at
#  http://www.iucr.org
##########################################################################

data_image0

_cell_length_a                          10.9253
_cell_length_b                          17.735
_cell_length_c                          16.853
_cell_angle_alpha                       89.673
_cell_angle_beta                        90
_cell_angle_gamma                       90
_symmetry_space_group_name_H-M          'P 1'
_symmetry_int_tables_number             1
loop_
  _symmetry_equiv_pos_as_xyz
         'x, y, z' 
loop_
  _atom_site_label
  _atom_site_occupancy
  _atom_site_fract_x
  _atom_site_fract_y
  _atom_site_fract_z
  _atom_site_thermal_displace_type
  _atom_site_B_iso_or_equiv
  _atom_site_type_symbol
  _atom_site_charge
         C1        1.0000    0.27860   0.54170   0.34400   Biso      1.000     C          -0.11179800000000001          
         C2        1.0000    0.34340   0.04710   0.17380   Biso      1.000     C          -0.116567           
         C3        1.0000    0.66440   0.61410   0.85440   Biso      1.000     C          -0.12400499999999999          
         C4        1.0000    0.14450   0.50980   0.76960   Biso      1.000     C          -0.11191199999999998          
         C5        1.0000    0.63700   0.93810   0.57820   Biso      1.000     C          0.680662  
         C6        1.0000    0.67050   0.01830   0.96420   Biso      1.000     C          -0.122628           
         C7        1.0000    0.85550   0.50980   0.26960   Biso      1.000     C          -0.11191199999999998          
         C8        1.0000    0.77930   0.13880   0.36540   Biso      1.000     C          -0.128687           
         C9        1.0000    0.30720   0.95640   0.76360   Biso      1.000     C          0.717327  
         C10       1.0000    0.81090   0.21410   0.91300   Biso      1.000     C          0.6977949999999999  
         C11       1.0000    0.18880   0.61010   0.68900   Biso      1.000     C          -0.118448           
         C12       1.0000    0.60290   0.94690   0.95420   Biso      1.000     C          0.676083  
         C13       1.0000    0.69790   0.70890   0.27020   Biso      1.000     C          0.703076  
         C14       1.0000    0.83050   0.21250   0.59750   Biso      1.000     C          0.693335  
         C15       1.0000    0.26030   0.03410   0.78550   Biso      1.000     C          -0.11748800000000001          
         C16       1.0000    0.21100   0.11350   0.51780   Biso      1.000     C          -0.11156700000000001          
         C17       1.0000    0.73970   0.03410   0.28550   Biso      1.000     C          -0.11748800000000001          
         C18       1.0000    0.77160   0.13860   0.61440   Biso      1.000     C          -0.12846  
         C19       1.0000    0.13300   0.53770   0.69540   Biso      1.000     C          -0.107399           
         C20       1.0000    0.23220   0.14020   0.44360   Biso      1.000     C          -0.12131800000000001          
         C21       1.0000    0.32530   0.64950   0.07250   Biso      1.000     C          -0.126436           
         C22       1.0000    0.06470   0.22010   0.79300   Biso      1.000     C          0.664267  
         C23       1.0000    0.84810   0.45040   0.92470   Biso      1.000     C          0.6672319999999999  
         C24       1.0000    0.64860   0.72110   0.95780   Biso      1.000     C          0.685779  
         C25       1.0000    0.81990   0.45150   0.61710   Biso      1.000     C          0.710888  
         C26       1.0000    0.22320   0.52870   0.09020   Biso      1.000     C          -0.12453  
         C27       1.0000    0.15080   0.15440   0.80360   Biso      1.000     C          -0.109204           
         C28       1.0000    0.30210   0.70890   0.77020   Biso      1.000     C          0.703076  
         C29       1.0000    0.68240   0.01160   0.60600   Biso      1.000     C          -0.119469           
         C30       1.0000    0.76780   0.14020   0.94360   Biso      1.000     C          -0.121334           
         C31       1.0000    0.36300   0.93810   0.07820   Biso      1.000     C          0.68066   
         C32       1.0000    0.77680   0.52870   0.59020   Biso      1.000     C          -0.12453  
         C33       1.0000    0.29510   0.12020   0.17970   Biso      1.000     C          -0.11708099999999999          
         C34       1.0000    0.26870   0.04130   0.52830   Biso      1.000     C          -0.11901300000000001          
         C35       1.0000    0.31760   0.01160   0.10600   Biso      1.000     C          -0.119441           
         C36       1.0000    0.78150   0.52110   0.91010   Biso      1.000     C          -0.11795  
         C37       1.0000    0.16950   0.21250   0.09750   Biso      1.000     C          0.693333  
         C38       1.0000    0.21850   0.52110   0.41010   Biso      1.000     C          -0.117924           
         C39       1.0000    0.09380   0.43840   0.80140   Biso      1.000     C          0.672902  
         C40       1.0000    0.68900   0.64560   0.92660   Biso      1.000     C          -0.120055           
         C41       1.0000    0.81120   0.61010   0.18900   Biso      1.000     C          -0.118448           
         C42       1.0000    0.75860   0.63480   0.51560   Biso      1.000     C          -0.12191600000000001          
         C43       1.0000    0.73130   0.04130   0.02830   Biso      1.000     C          -0.118978           
         C44       1.0000    0.93530   0.22010   0.29300   Biso      1.000     C          0.664263  
         C45       1.0000    0.24200   0.63440   0.75520   Biso      1.000     C          -0.125362           
         C46       1.0000    0.33560   0.61410   0.35440   Biso      1.000     C          -0.124002           
         C47       1.0000    0.59270   0.71660   0.58090   Biso      1.000     C          0.6738310000000001  
         C48       1.0000    0.18010   0.45150   0.11710   Biso      1.000     C          0.710888  
         C49       1.0000    0.90620   0.43840   0.30140   Biso      1.000     C          0.672902  
         C50       1.0000    0.31100   0.64560   0.42660   Biso      1.000     C          -0.120055           
         C51       1.0000    0.84920   0.15440   0.30360   Biso      1.000     C          -0.109168           
         C52       1.0000    0.40730   0.71660   0.08090   Biso      1.000     C          0.673833  
         C53       1.0000    0.32950   0.01830   0.46420   Biso      1.000     C          -0.12259  
         C54       1.0000    0.75800   0.63440   0.25520   Biso      1.000     C          -0.125362           
         C55       1.0000    0.22840   0.13860   0.11440   Biso      1.000     C          -0.128446           
         C56       1.0000    0.22070   0.13880   0.86540   Biso      1.000     C          -0.128651           
         C57       1.0000    0.71070   0.06890   0.35550   Biso      1.000     C          -0.142533           
         C58       1.0000    0.24140   0.63480   0.01560   Biso      1.000     C          -0.121896           
         C59       1.0000    0.15190   0.45040   0.42470   Biso      1.000     C          0.66723   
         C60       1.0000    0.35140   0.72110   0.45780   Biso      1.000     C          0.685779  
         C61       1.0000    0.70490   0.12020   0.67970   Biso      1.000     C          -0.11707100000000001          
         C62       1.0000    0.86700   0.53770   0.19540   Biso      1.000     C          -0.107399           
         C63       1.0000    0.69280   0.95640   0.26360   Biso      1.000     C          0.717327  
         C64       1.0000    0.65660   0.04710   0.67380   Biso      1.000     C          -0.116542           
         C65       1.0000    0.18150   0.56570   0.02570   Biso      1.000     C          -0.117541           
         C66       1.0000    0.78900   0.11350   0.01780   Biso      1.000     C          -0.111555           
         C67       1.0000    0.18910   0.21410   0.41300   Biso      1.000     C          0.6977939999999999  
         C68       1.0000    0.81850   0.56570   0.52570   Biso      1.000     C          -0.117539           
         C69       1.0000    0.67470   0.64950   0.57250   Biso      1.000     C          -0.126417           
         C70       1.0000    0.28930   0.06890   0.85550   Biso      1.000     C          -0.142537           
         C71       1.0000    0.72140   0.54170   0.84400   Biso      1.000     C          -0.111772           
         C72       1.0000    0.39710   0.94690   0.45420   Biso      1.000     C          0.676079  
         Gd1       1.0000    0.96172   0.33264   0.47450   Biso      1.000     Gd          2.133495  
         Gd2       1.0000    0.85843   0.32513   0.76019   Biso      1.000     Gd          2.081455  
         Gd3       1.0000    0.58972   0.83094   0.40753   Biso      1.000     Gd          2.109757  
         Gd4       1.0000    0.14157   0.32513   0.26019   Biso      1.000     Gd          2.081455  
         Gd5       1.0000    0.60445   0.82931   0.12494   Biso      1.000     Gd          2.103336  
         Gd6       1.0000    0.39555   0.82931   0.62494   Biso      1.000     Gd          2.103336  
         Gd7       1.0000    0.41028   0.83094   0.90753   Biso      1.000     Gd          2.109757  
         Gd8       1.0000    0.03828   0.33264   0.97450   Biso      1.000     Gd          2.133495  
         H1        1.0000    0.12070   0.54770   0.99220   Biso      1.000     H          0.134027  
         H2        1.0000    0.87930   0.54770   0.49220   Biso      1.000     H          0.134027  
         H3        1.0000    0.26410   0.01340   0.57500   Biso      1.000     H          0.122     
         H4        1.0000    0.38410   0.63720   0.31600   Biso      1.000     H          0.127967  
         H5        1.0000    0.16560   0.13830   0.55630   Biso      1.000     H          0.13641   
         H6        1.0000    0.09380   0.51290   0.65400   Biso      1.000     H          0.143946  
         H7        1.0000    0.61590   0.63720   0.81600   Biso      1.000     H          0.127967  
         H8        1.0000    0.18810   0.63820   0.64220   Biso      1.000     H          0.12112200000000001           
         H9        1.0000    0.83440   0.13830   0.05630   Biso      1.000     H          0.13641   
         H10       1.0000    0.61020   0.02510   0.71390   Biso      1.000     H          0.12516   
         H11       1.0000    0.56970   0.87390   0.76530   Biso      1.000     H          0.439363  
         H12       1.0000    0.30720   0.15200   0.22270   Biso      1.000     H          0.125572  
         H13       1.0000    0.65440   0.05030   0.39210   Biso      1.000     H          0.126926  
         H14       1.0000    0.43030   0.78630   0.26630   Biso      1.000     H          0.44095500000000004           
         H15       1.0000    0.73590   0.01340   0.07500   Biso      1.000     H          0.121998  
         H16       1.0000    0.71720   0.51320   0.79800   Biso      1.000     H          0.12978800000000001           
         H17       1.0000    0.38980   0.02510   0.21390   Biso      1.000     H          0.125162  
         H18       1.0000    0.22510   0.66760   0.97370   Biso      1.000     H          0.11777   
         H19       1.0000    0.43030   0.87390   0.26530   Biso      1.000     H          0.439363  
         H20       1.0000    0.90620   0.51290   0.15400   Biso      1.000     H          0.143946  
         H21       1.0000    0.77490   0.66760   0.47370   Biso      1.000     H          0.117771  
         H22       1.0000    0.69280   0.15200   0.72270   Biso      1.000     H          0.12557100000000002           
         H23       1.0000    0.22560   0.16890   0.91030   Biso      1.000     H          0.124171  
         H24       1.0000    0.28280   0.51320   0.29800   Biso      1.000     H          0.12978900000000002           
         H25       1.0000    0.34560   0.05030   0.89210   Biso      1.000     H          0.126926  
         H26       1.0000    0.77440   0.16890   0.41030   Biso      1.000     H          0.124173  
         H27       1.0000    0.56970   0.78630   0.76630   Biso      1.000     H          0.44095500000000004           
         H28       1.0000    0.81190   0.63820   0.14220   Biso      1.000     H          0.12112200000000001           
         O1        1.0000    0.31090   0.91110   0.82090   Biso      1.000     O          -0.698635           
         O2        1.0000    0.12300   0.41430   0.06760   Biso      1.000     O          -0.7066720000000001           
         O3        1.0000    0.46600   0.72470   0.14440   Biso      1.000     O          -0.643289           
         O4        1.0000    0.54920   0.93560   0.88960   Biso      1.000     O          -0.640616           
         O5        1.0000    0.89510   0.21930   0.53920   Biso      1.000     O          -0.6471140000000001           
         O6        1.0000    0.59990   0.90070   0.00980   Biso      1.000     O          -0.7364609999999999           
         O7        1.0000    0.33260   0.94270   0.69500   Biso      1.000     O          -0.65695  
         O8        1.0000    0.80080   0.26570   0.64500   Biso      1.000     O          -0.736861           
         O9        1.0000    0.58250   0.89770   0.62730   Biso      1.000     O          -0.657342           
         O10       1.0000    0.86680   0.25560   0.96210   Biso      1.000     O          -0.682026           
         O11       1.0000    0.90640   0.44180   0.98730   Biso      1.000     O          -0.6156159999999999           
         O12       1.0000    0.70710   0.75550   0.21410   Biso      1.000     O          -0.702896           
         O13       1.0000    0.96190   0.39640   0.25020   Biso      1.000     O          -0.671182           
         O14       1.0000    0.79750   0.43240   0.68590   Biso      1.000     O          -0.667871           
         O15       1.0000    0.89350   0.42470   0.37300   Biso      1.000     O          -0.667864           
         O16       1.0000    0.98570   0.22860   0.22960   Biso      1.000     O          -0.5935630000000001           
         O17       1.0000    0.87700   0.41430   0.56760   Biso      1.000     O          -0.7066720000000001           
         O18       1.0000    0.41100   0.76190   0.02570   Biso      1.000     O          -0.726676           
         O19       1.0000    0.48360   0.83010   0.26670   Biso      1.000     O          -0.856599           
         O20       1.0000    0.64860   0.71970   0.33490   Biso      1.000     O          -0.660082           
         O21       1.0000    0.65800   0.92110   0.50590   Biso      1.000     O          -0.691245           
         O22       1.0000    0.01430   0.22860   0.72960   Biso      1.000     O          -0.5935630000000001           
         O23       1.0000    0.84580   0.39980   0.87050   Biso      1.000     O          -0.763544           
         O24       1.0000    0.19920   0.26570   0.14500   Biso      1.000     O          -0.736861           
         O25       1.0000    0.05030   0.26370   0.85260   Biso      1.000     O          -0.766533           
         O26       1.0000    0.10650   0.42470   0.87300   Biso      1.000     O          -0.667864           
         O27       1.0000    0.40530   0.76170   0.40700   Biso      1.000     O          -0.6793239999999999           
         O28       1.0000    0.20250   0.43240   0.18590   Biso      1.000     O          -0.667871           
         O29       1.0000    0.09360   0.44180   0.48730   Biso      1.000     O          -0.6156159999999999           
         O30       1.0000    0.29290   0.75550   0.71410   Biso      1.000     O          -0.702896           
         O31       1.0000    0.32750   0.73660   0.52710   Biso      1.000     O          -0.659798           
         O32       1.0000    0.40010   0.90070   0.50980   Biso      1.000     O          -0.7364609999999999           
         O33       1.0000    0.51640   0.83010   0.76670   Biso      1.000     O          -0.856599           
         O34       1.0000    0.34200   0.92110   0.00590   Biso      1.000     O          -0.691245           
         O35       1.0000    0.94970   0.26370   0.35260   Biso      1.000     O          -0.766532           
         O36       1.0000    0.20890   0.22750   0.34210   Biso      1.000     O          -0.672666           
         O37       1.0000    0.45080   0.93560   0.38960   Biso      1.000     O          -0.640617           
         O38       1.0000    0.03810   0.39640   0.75020   Biso      1.000     O          -0.671182           
         O39       1.0000    0.53400   0.72470   0.64440   Biso      1.000     O          -0.6432899999999999           
         O40       1.0000    0.66740   0.94270   0.19500   Biso      1.000     O          -0.6569510000000001           
         O41       1.0000    0.79110   0.22750   0.84210   Biso      1.000     O          -0.672666           
         O42       1.0000    0.35140   0.71970   0.83490   Biso      1.000     O          -0.660082           
         O43       1.0000    0.10490   0.21930   0.03920   Biso      1.000     O          -0.6471140000000001           
         O44       1.0000    0.68910   0.91110   0.32090   Biso      1.000     O          -0.698635           
         O45       1.0000    0.41750   0.89770   0.12730   Biso      1.000     O          -0.657342           
         O46       1.0000    0.58900   0.76190   0.52570   Biso      1.000     O          -0.726676           
         O47       1.0000    0.15420   0.39980   0.37050   Biso      1.000     O          -0.763544           
         O48       1.0000    0.13320   0.25560   0.46210   Biso      1.000     O          -0.682026           
         O49       1.0000    0.59470   0.76170   0.90700   Biso      1.000     O          -0.6793239999999999           
         O50       1.0000    0.67250   0.73660   0.02710   Biso      1.000     O          -0.659798           
         S1        1.0000    0.32180   0.08180   0.38938   Biso      1.000     S          0.17519400000000002           
         S2        1.0000    0.22570   0.56958   0.83059   Biso      1.000     S          0.149246  
         S3        1.0000    0.16010   0.08543   0.73053   Biso      1.000     S          0.14665599999999998           
         S4        1.0000    0.32980   0.57855   0.14220   Biso      1.000     S          0.16768   
         S5        1.0000    0.22400   0.58775   0.48431   Biso      1.000     S          0.172021  
         S6        1.0000    0.67020   0.57855   0.64220   Biso      1.000     S          0.167678  
         S7        1.0000    0.22660   0.06735   0.04777   Biso      1.000     S          0.185448  
         S8        1.0000    0.67820   0.08180   0.88938   Biso      1.000     S          0.175199  
         S9        1.0000    0.77340   0.06735   0.54777   Biso      1.000     S          0.185453  
         S10       1.0000    0.77600   0.58775   0.98431   Biso      1.000     S          0.172024  
         S11       1.0000    0.83990   0.08543   0.23053   Biso      1.000     S          0.146651  
         S12       1.0000    0.77430   0.56958   0.33059   Biso      1.000     S          0.149246 