
##########################################################################
#               Crystallographic Information Format file
#               Produced by PyCifRW module
#
#  This is a CIF file.  CIF has been adopted by the International
#  Union of Crystallography as the standard for data archiving and
#  transmission.
#
#  For information on this file format, follow the CIF links at
#  http://www.iucr.org
##########################################################################

data_image0

_cell_length_a                          10.935
_cell_length_b                          17.915
_cell_length_c                          16.953
_cell_angle_alpha                       89.832
_cell_angle_beta                        90
_cell_angle_gamma                       90
_symmetry_space_group_name_H-M          'P 1'
_symmetry_int_tables_number             1
loop_
  _symmetry_equiv_pos_as_xyz
         'x, y, z' 
loop_
  _atom_site_label
  _atom_site_occupancy
  _atom_site_fract_x
  _atom_site_fract_y
  _atom_site_fract_z
  _atom_site_thermal_displace_type
  _atom_site_B_iso_or_equiv
  _atom_site_type_symbol
  _atom_site_charge
         C1        1.0000    0.66830   0.61040   0.85750   Biso      1.000     C          -0.115519           
         C2        1.0000    0.32200   0.01380   0.10740   Biso      1.000     C          -0.126476           
         C3        1.0000    0.27330   0.54060   0.34950   Biso      1.000     C          -0.112205           
         C4        1.0000    0.77160   0.13740   0.94620   Biso      1.000     C          -0.113205           
         C5        1.0000    0.67800   0.01380   0.60740   Biso      1.000     C          -0.126476           
         C6        1.0000    0.65410   0.71840   0.95690   Biso      1.000     C          0.679045  
         C7        1.0000    0.39680   0.94680   0.45200   Biso      1.000     C          0.665826  
         C8        1.0000    0.80470   0.56280   0.52440   Biso      1.000     C          -0.121842           
         C9        1.0000    0.33600   0.64730   0.07500   Biso      1.000     C          -0.129621           
         C10       1.0000    0.85130   0.51160   0.26780   Biso      1.000     C          -0.116606           
         C11       1.0000    0.24020   0.63560   0.75450   Biso      1.000     C          -0.122509           
         C12       1.0000    0.85530   0.15190   0.30240   Biso      1.000     C          -0.11247  
         C13       1.0000    0.79200   0.13320   0.36690   Biso      1.000     C          -0.12685  
         C14       1.0000    0.58870   0.71370   0.58470   Biso      1.000     C          0.656684  
         C15       1.0000    0.66400   0.64730   0.57500   Biso      1.000     C          -0.12962  
         C16       1.0000    0.72500   0.06420   0.35840   Biso      1.000     C          -0.137371           
         C17       1.0000    0.69930   0.95590   0.26420   Biso      1.000     C          0.707385  
         C18       1.0000    0.33170   0.61040   0.35750   Biso      1.000     C          -0.115514           
         C19       1.0000    0.30070   0.95590   0.76420   Biso      1.000     C          0.707385  
         C20       1.0000    0.36470   0.94020   0.07980   Biso      1.000     C          0.68644   
         C21       1.0000    0.19530   0.56280   0.02440   Biso      1.000     C          -0.121842           
         C22       1.0000    0.30740   0.64350   0.42660   Biso      1.000     C          -0.111643           
         C23       1.0000    0.81930   0.21380   0.59960   Biso      1.000     C          0.687716  
         C24       1.0000    0.63530   0.94020   0.57980   Biso      1.000     C          0.68644   
         C25       1.0000    0.13180   0.53970   0.69420   Biso      1.000     C          -0.115577           
         C26       1.0000    0.25480   0.63130   0.01520   Biso      1.000     C          -0.116349           
         C27       1.0000    0.09860   0.43920   0.79800   Biso      1.000     C          0.674541  
         C28       1.0000    0.23330   0.52790   0.09080   Biso      1.000     C          -0.125606           
         C29       1.0000    0.14470   0.15190   0.80240   Biso      1.000     C          -0.11247  
         C30       1.0000    0.06460   0.21880   0.79010   Biso      1.000     C          0.652412  
         C31       1.0000    0.32720   0.01630   0.46350   Biso      1.000     C          -0.122388           
         C32       1.0000    0.74880   0.03150   0.28620   Biso      1.000     C          -0.119429           
         C33       1.0000    0.26700   0.03880   0.52900   Biso      1.000     C          -0.120527           
         C34       1.0000    0.22840   0.13740   0.44620   Biso      1.000     C          -0.113205           
         C35       1.0000    0.27500   0.06420   0.85840   Biso      1.000     C          -0.137371           
         C36       1.0000    0.41130   0.71370   0.08470   Biso      1.000     C          0.656684  
         C37       1.0000    0.86820   0.53970   0.19420   Biso      1.000     C          -0.115566           
         C38       1.0000    0.20740   0.10980   0.51780   Biso      1.000     C          -0.109526           
         C39       1.0000    0.64850   0.04840   0.67620   Biso      1.000     C          -0.12131  
         C40       1.0000    0.78800   0.52070   0.91340   Biso      1.000     C          -0.114377           
         C41       1.0000    0.67280   0.01630   0.96350   Biso      1.000     C          -0.122388           
         C42       1.0000    0.21200   0.52070   0.41340   Biso      1.000     C          -0.114332           
         C43       1.0000    0.25120   0.03150   0.78620   Biso      1.000     C          -0.119429           
         C44       1.0000    0.35150   0.04840   0.17620   Biso      1.000     C          -0.12131  
         C45       1.0000    0.93540   0.21880   0.29010   Biso      1.000     C          0.652412  
         C46       1.0000    0.19190   0.61070   0.68860   Biso      1.000     C          -0.117864           
         C47       1.0000    0.60320   0.94680   0.95200   Biso      1.000     C          0.665826  
         C48       1.0000    0.34590   0.71840   0.45690   Biso      1.000     C          0.679045  
         C49       1.0000    0.75980   0.63560   0.25450   Biso      1.000     C          -0.122509           
         C50       1.0000    0.79260   0.10980   0.01780   Biso      1.000     C          -0.109526           
         C51       1.0000    0.70210   0.70910   0.26960   Biso      1.000     C          0.693114  
         C52       1.0000    0.85850   0.45210   0.92960   Biso      1.000     C          0.669453  
         C53       1.0000    0.74520   0.63130   0.51520   Biso      1.000     C          -0.116349           
         C54       1.0000    0.76670   0.52790   0.59080   Biso      1.000     C          -0.125606           
         C55       1.0000    0.18550   0.21080   0.41430   Biso      1.000     C          0.696736  
         C56       1.0000    0.14150   0.45210   0.42960   Biso      1.000     C          0.669449  
         C57       1.0000    0.20800   0.13320   0.86690   Biso      1.000     C          -0.12685  
         C58       1.0000    0.14870   0.51160   0.76780   Biso      1.000     C          -0.116595           
         C59       1.0000    0.73300   0.03880   0.02900   Biso      1.000     C          -0.120527           
         C60       1.0000    0.23720   0.14020   0.11670   Biso      1.000     C          -0.130959           
         C61       1.0000    0.76280   0.14020   0.61670   Biso      1.000     C          -0.130959           
         C62       1.0000    0.80810   0.61070   0.18860   Biso      1.000     C          -0.117866           
         C63       1.0000    0.72670   0.54060   0.84950   Biso      1.000     C          -0.112162           
         C64       1.0000    0.81120   0.45080   0.61690   Biso      1.000     C          0.709389  
         C65       1.0000    0.30170   0.12100   0.18230   Biso      1.000     C          -0.118682           
         C66       1.0000    0.81450   0.21080   0.91430   Biso      1.000     C          0.696736  
         C67       1.0000    0.69830   0.12100   0.68230   Biso      1.000     C          -0.118682           
         C68       1.0000    0.18880   0.45080   0.11690   Biso      1.000     C          0.709389  
         C69       1.0000    0.29790   0.70910   0.76960   Biso      1.000     C          0.693114  
         C70       1.0000    0.69260   0.64350   0.92660   Biso      1.000     C          -0.111643           
         C71       1.0000    0.18070   0.21380   0.09960   Biso      1.000     C          0.687716  
         C72       1.0000    0.90140   0.43920   0.29800   Biso      1.000     C          0.674543  
         H1        1.0000    0.73560   0.01160   0.07580   Biso      1.000     H          0.122188  
         H2        1.0000    0.86240   0.54390   0.48950   Biso      1.000     H          0.132591  
         H3        1.0000    0.26440   0.01160   0.57580   Biso      1.000     H          0.122188  
         H4        1.0000    0.56980   0.78630   0.76680   Biso      1.000     H          0.439675  
         H5        1.0000    0.16010   0.13340   0.55590   Biso      1.000     H          0.136034  
         H6        1.0000    0.57020   0.87300   0.76580   Biso      1.000     H          0.438517  
         H7        1.0000    0.60060   0.02650   0.71530   Biso      1.000     H          0.130587  
         H8        1.0000    0.24080   0.66320   0.97270   Biso      1.000     H          0.114052  
         H9        1.0000    0.79120   0.16160   0.41270   Biso      1.000     H          0.119499  
         H10       1.0000    0.43020   0.78630   0.26680   Biso      1.000     H          0.439675  
         H11       1.0000    0.08830   0.51670   0.65390   Biso      1.000     H          0.144244  
         H12       1.0000    0.38160   0.63120   0.31890   Biso      1.000     H          0.130209  
         H13       1.0000    0.19650   0.63730   0.64150   Biso      1.000     H          0.117238  
         H14       1.0000    0.68810   0.15180   0.72590   Biso      1.000     H          0.123742  
         H15       1.0000    0.13760   0.54390   0.98950   Biso      1.000     H          0.132592  
         H16       1.0000    0.80350   0.63730   0.14150   Biso      1.000     H          0.117238  
         H17       1.0000    0.75920   0.66320   0.47270   Biso      1.000     H          0.114052  
         H18       1.0000    0.32730   0.04440   0.89630   Biso      1.000     H          0.127726  
         H19       1.0000    0.31190   0.15180   0.22590   Biso      1.000     H          0.123742  
         H20       1.0000    0.61840   0.63120   0.81890   Biso      1.000     H          0.130209  
         H21       1.0000    0.67270   0.04440   0.39630   Biso      1.000     H          0.127726  
         H22       1.0000    0.91170   0.51670   0.15390   Biso      1.000     H          0.144244  
         H23       1.0000    0.83990   0.13340   0.05590   Biso      1.000     H          0.136034  
         H24       1.0000    0.42980   0.87300   0.26580   Biso      1.000     H          0.438517  
         H25       1.0000    0.72250   0.51160   0.80410   Biso      1.000     H          0.124294  
         H26       1.0000    0.20880   0.16160   0.91270   Biso      1.000     H          0.119499  
         H27       1.0000    0.27750   0.51160   0.30410   Biso      1.000     H          0.124297  
         H28       1.0000    0.39940   0.02650   0.21530   Biso      1.000     H          0.130587  
         Nd1       1.0000    0.60790   0.82889   0.12374   Biso      1.000     Nd          2.137715  
         Nd2       1.0000    0.58873   0.83103   0.40892   Biso      1.000     Nd          2.146859  
         Nd3       1.0000    0.86007   0.32540   0.76150   Biso      1.000     Nd          2.125609  
         Nd4       1.0000    0.39210   0.82889   0.62374   Biso      1.000     Nd          2.137715  
         Nd5       1.0000    0.13993   0.32540   0.26150   Biso      1.000     Nd          2.125609  
         Nd6       1.0000    0.04491   0.33278   0.97273   Biso      1.000     Nd          2.202179  
         Nd7       1.0000    0.41127   0.83103   0.90892   Biso      1.000     Nd          2.146859  
         Nd8       1.0000    0.95509   0.33278   0.47273   Biso      1.000     Nd          2.202179  
         O1        1.0000    0.64900   0.71920   0.33440   Biso      1.000     O          -0.673889           
         O2        1.0000    0.58280   0.76120   0.53020   Biso      1.000     O          -0.742794           
         O3        1.0000    0.53150   0.72120   0.64910   Biso      1.000     O          -0.635426           
         O4        1.0000    0.08570   0.44590   0.49050   Biso      1.000     O          -0.601189           
         O5        1.0000    0.67620   0.94250   0.19450   Biso      1.000     O          -0.66918  
         O6        1.0000    0.30840   0.91060   0.82050   Biso      1.000     O          -0.694722           
         O7        1.0000    0.41980   0.90080   0.12720   Biso      1.000     O          -0.661611           
         O8        1.0000    0.05200   0.26240   0.84750   Biso      1.000     O          -0.755986           
         O9        1.0000    0.40200   0.89980   0.50420   Biso      1.000     O          -0.72758  
         O10       1.0000    0.20760   0.22660   0.34520   Biso      1.000     O          -0.675254           
         O11       1.0000    0.71370   0.75680   0.21620   Biso      1.000     O          -0.697632           
         O12       1.0000    0.04220   0.39850   0.74930   Biso      1.000     O          -0.658778           
         O13       1.0000    0.67740   0.73490   0.02570   Biso      1.000     O          -0.666387           
         O14       1.0000    0.87320   0.25120   0.96220   Biso      1.000     O          -0.695004           
         O15       1.0000    0.20650   0.43370   0.18770   Biso      1.000     O          -0.690052           
         O16       1.0000    0.98550   0.22840   0.22500   Biso      1.000     O          -0.612242           
         O17       1.0000    0.40420   0.75830   0.40730   Biso      1.000     O          -0.683302           
         O18       1.0000    0.86180   0.41230   0.56820   Biso      1.000     O          -0.702466           
         O19       1.0000    0.11490   0.21990   0.04020   Biso      1.000     O          -0.676997           
         O20       1.0000    0.28630   0.75680   0.71620   Biso      1.000     O          -0.697632           
         O21       1.0000    0.13820   0.41230   0.06820   Biso      1.000     O          -0.702466           
         O22       1.0000    0.91430   0.44590   0.99050   Biso      1.000     O          -0.601189           
         O23       1.0000    0.12680   0.25120   0.46220   Biso      1.000     O          -0.695004           
         O24       1.0000    0.85790   0.39970   0.87700   Biso      1.000     O          -0.794889           
         O25       1.0000    0.79420   0.26470   0.64760   Biso      1.000     O          -0.719346           
         O26       1.0000    0.69160   0.91060   0.32050   Biso      1.000     O          -0.694722           
         O27       1.0000    0.32380   0.94250   0.69450   Biso      1.000     O          -0.66918  
         O28       1.0000    0.88430   0.42530   0.36970   Biso      1.000     O          -0.695967           
         O29       1.0000    0.58020   0.90080   0.62720   Biso      1.000     O          -0.661611           
         O30       1.0000    0.59800   0.89980   0.00420   Biso      1.000     O          -0.72758  
         O31       1.0000    0.51690   0.82980   0.76730   Biso      1.000     O          -0.859637           
         O32       1.0000    0.01450   0.22840   0.72500   Biso      1.000     O          -0.612242           
         O33       1.0000    0.14210   0.39970   0.37700   Biso      1.000     O          -0.794889           
         O34       1.0000    0.94800   0.26240   0.34750   Biso      1.000     O          -0.755986           
         O35       1.0000    0.20580   0.26470   0.14760   Biso      1.000     O          -0.719346           
         O36       1.0000    0.35100   0.71920   0.83440   Biso      1.000     O          -0.673889           
         O37       1.0000    0.33990   0.92240   0.00970   Biso      1.000     O          -0.698117           
         O38       1.0000    0.32260   0.73490   0.52570   Biso      1.000     O          -0.666387           
         O39       1.0000    0.88510   0.21990   0.54020   Biso      1.000     O          -0.676997           
         O40       1.0000    0.11570   0.42530   0.86970   Biso      1.000     O          -0.695967           
         O41       1.0000    0.41720   0.76120   0.03020   Biso      1.000     O          -0.742794           
         O42       1.0000    0.79350   0.43370   0.68770   Biso      1.000     O          -0.690052           
         O43       1.0000    0.79240   0.22660   0.84520   Biso      1.000     O          -0.675254           
         O44       1.0000    0.48310   0.82980   0.26730   Biso      1.000     O          -0.859637           
         O45       1.0000    0.66010   0.92240   0.50970   Biso      1.000     O          -0.698117           
         O46       1.0000    0.46850   0.72120   0.14910   Biso      1.000     O          -0.635426           
         O47       1.0000    0.45130   0.93770   0.38600   Biso      1.000     O          -0.650752           
         O48       1.0000    0.54870   0.93770   0.88600   Biso      1.000     O          -0.650752           
         O49       1.0000    0.59580   0.75830   0.90730   Biso      1.000     O          -0.683301           
         O50       1.0000    0.95780   0.39850   0.24930   Biso      1.000     O          -0.658779           
         S1        1.0000    0.33330   0.57869   0.14420   Biso      1.000     S          0.188206  
         S2        1.0000    0.78190   0.58771   0.98552   Biso      1.000     S          0.158119  
         S3        1.0000    0.76690   0.06963   0.55012   Biso      1.000     S          0.193054  
         S4        1.0000    0.83690   0.08588   0.22825   Biso      1.000     S          0.161257  
         S5        1.0000    0.16310   0.08588   0.72825   Biso      1.000     S          0.161257  
         S6        1.0000    0.66670   0.57869   0.64420   Biso      1.000     S          0.188206  
         S7        1.0000    0.77400   0.57054   0.32805   Biso      1.000     S          0.160463  
         S8        1.0000    0.22600   0.57054   0.82805   Biso      1.000     S          0.160462  
         S9        1.0000    0.23310   0.06963   0.05012   Biso      1.000     S          0.193054  
         S10       1.0000    0.68120   0.08131   0.88967   Biso      1.000     S          0.165254  
         S11       1.0000    0.31880   0.08131   0.38967   Biso      1.000     S          0.165254  
         S12       1.0000    0.21810   0.58771   0.48552   Biso      1.000     S          0.158115 