
##########################################################################
#               Crystallographic Information Format file
#               Produced by PyCifRW module
#
#  This is a CIF file.  CIF has been adopted by the International
#  Union of Crystallography as the standard for data archiving and
#  transmission.
#
#  For information on this file format, follow the CIF links at
#  http://www.iucr.org
##########################################################################

data_image0

_cell_length_a                          10.9111
_cell_length_b                          17.8204
_cell_length_c                          16.8813
_cell_angle_alpha                       89.762
_cell_angle_beta                        90
_cell_angle_gamma                       90
_symmetry_space_group_name_H-M          'P 1'
_symmetry_int_tables_number             1
loop_
  _symmetry_equiv_pos_as_xyz
         'x, y, z' 
loop_
  _atom_site_label
  _atom_site_occupancy
  _atom_site_fract_x
  _atom_site_fract_y
  _atom_site_fract_z
  _atom_site_thermal_displace_type
  _atom_site_B_iso_or_equiv
  _atom_site_type_symbol
  _atom_site_charge
         C1        1.0000    0.14470   0.45070   0.42670   Biso      1.000     C          0.671725  
         C2        1.0000    0.13360   0.53940   0.69570   Biso      1.000     C          -0.10591400000000001          
         C3        1.0000    0.70200   0.12040   0.68230   Biso      1.000     C          -0.12204100000000001          
         C4        1.0000    0.73060   0.04130   0.02690   Biso      1.000     C          -0.117118           
         C5        1.0000    0.81410   0.21160   0.91370   Biso      1.000     C          0.705871  
         C6        1.0000    0.80950   0.60950   0.18810   Biso      1.000     C          -0.117301           
         C7        1.0000    0.77440   0.52910   0.59050   Biso      1.000     C          -0.12116700000000001          
         C8        1.0000    0.28720   0.06750   0.85560   Biso      1.000     C          -0.139019           
         C9        1.0000    0.32890   0.64890   0.07400   Biso      1.000     C          -0.124904           
         C10       1.0000    0.29800   0.12040   0.18230   Biso      1.000     C          -0.12204100000000001          
         C11       1.0000    0.68200   0.01190   0.60780   Biso      1.000     C          -0.125168           
         C12       1.0000    0.09770   0.43870   0.80000   Biso      1.000     C          0.678535  
         C13       1.0000    0.06450   0.21830   0.79200   Biso      1.000     C          0.657776  
         C14       1.0000    0.90230   0.43870   0.30000   Biso      1.000     C          0.678538  
         C15       1.0000    0.21370   0.52060   0.41210   Biso      1.000     C          -0.121928           
         C16       1.0000    0.18590   0.21160   0.41370   Biso      1.000     C          0.705871  
         C17       1.0000    0.30400   0.95570   0.76480   Biso      1.000     C          0.708903  
         C18       1.0000    0.78920   0.11250   0.01620   Biso      1.000     C          -0.11146600000000001          
         C19       1.0000    0.78630   0.52060   0.91210   Biso      1.000     C          -0.121928           
         C20       1.0000    0.21080   0.11250   0.51620   Biso      1.000     C          -0.111472           
         C21       1.0000    0.78380   0.13590   0.36670   Biso      1.000     C          -0.127141           
         C22       1.0000    0.23370   0.13990   0.11480   Biso      1.000     C          -0.136384           
         C23       1.0000    0.85510   0.51090   0.26950   Biso      1.000     C          -0.113478           
         C24       1.0000    0.30980   0.64360   0.42760   Biso      1.000     C          -0.12211  
         C25       1.0000    0.75770   0.63450   0.25510   Biso      1.000     C          -0.12403299999999999          
         C26       1.0000    0.18510   0.45140   0.11670   Biso      1.000     C          0.712037  
         C27       1.0000    0.24550   0.63420   0.01760   Biso      1.000     C          -0.123454           
         C28       1.0000    0.82590   0.21380   0.59760   Biso      1.000     C          0.7004130000000001  
         C29       1.0000    0.76630   0.13990   0.61480   Biso      1.000     C          -0.136384           
         C30       1.0000    0.75450   0.63420   0.51760   Biso      1.000     C          -0.123482           
         C31       1.0000    0.93550   0.21830   0.29200   Biso      1.000     C          0.657776  
         C32       1.0000    0.33350   0.61280   0.35520   Biso      1.000     C          -0.117049           
         C33       1.0000    0.21620   0.13590   0.86670   Biso      1.000     C          -0.127141           
         C34       1.0000    0.31800   0.01190   0.10780   Biso      1.000     C          -0.125168           
         C35       1.0000    0.65400   0.04710   0.67510   Biso      1.000     C          -0.121233           
         C36       1.0000    0.36370   0.93820   0.07920   Biso      1.000     C          0.69219   
         C37       1.0000    0.23210   0.13910   0.44270   Biso      1.000     C          -0.11639400000000001          
         C38       1.0000    0.69020   0.64360   0.92760   Biso      1.000     C          -0.12211  
         C39       1.0000    0.63630   0.93820   0.57920   Biso      1.000     C          0.69219   
         C40       1.0000    0.66650   0.61280   0.85520   Biso      1.000     C          -0.117049           
         C41       1.0000    0.14490   0.51090   0.76950   Biso      1.000     C          -0.113456           
         C42       1.0000    0.22560   0.52910   0.09050   Biso      1.000     C          -0.12116700000000001          
         C43       1.0000    0.17410   0.21380   0.09760   Biso      1.000     C          0.7004130000000001  
         C44       1.0000    0.81160   0.56350   0.52470   Biso      1.000     C          -0.11801500000000001          
         C45       1.0000    0.14780   0.15220   0.80290   Biso      1.000     C          -0.118527           
         C46       1.0000    0.85220   0.15220   0.30290   Biso      1.000     C          -0.118527           
         C47       1.0000    0.34600   0.04710   0.17510   Biso      1.000     C          -0.121233           
         C48       1.0000    0.81490   0.45140   0.61670   Biso      1.000     C          0.712037  
         C49       1.0000    0.67110   0.64890   0.57400   Biso      1.000     C          -0.124876           
         C50       1.0000    0.71280   0.06750   0.35560   Biso      1.000     C          -0.139019           
         C51       1.0000    0.65170   0.71900   0.95740   Biso      1.000     C          0.685375  
         C52       1.0000    0.86640   0.53940   0.19570   Biso      1.000     C          -0.10589200000000001          
         C53       1.0000    0.69950   0.70880   0.26950   Biso      1.000     C          0.697734  
         C54       1.0000    0.60300   0.94650   0.95280   Biso      1.000     C          0.665009  
         C55       1.0000    0.19050   0.60950   0.68810   Biso      1.000     C          -0.117298           
         C56       1.0000    0.32830   0.01700   0.46530   Biso      1.000     C          -0.108454           
         C57       1.0000    0.26940   0.04130   0.52690   Biso      1.000     C          -0.11706300000000001          
         C58       1.0000    0.58850   0.71590   0.58270   Biso      1.000     C          0.6798069999999999  
         C59       1.0000    0.25500   0.03360   0.78650   Biso      1.000     C          -0.115103           
         C60       1.0000    0.24230   0.63450   0.75510   Biso      1.000     C          -0.12403399999999999          
         C61       1.0000    0.74500   0.03360   0.28650   Biso      1.000     C          -0.115104           
         C62       1.0000    0.76790   0.13910   0.94270   Biso      1.000     C          -0.116395           
         C63       1.0000    0.85530   0.45070   0.92670   Biso      1.000     C          0.671725  
         C64       1.0000    0.67170   0.01700   0.96530   Biso      1.000     C          -0.10839800000000001          
         C65       1.0000    0.41150   0.71590   0.08270   Biso      1.000     C          0.67981   
         C66       1.0000    0.34830   0.71900   0.45740   Biso      1.000     C          0.685375  
         C67       1.0000    0.39700   0.94650   0.45280   Biso      1.000     C          0.6650149999999999  
         C68       1.0000    0.72260   0.54060   0.84630   Biso      1.000     C          -0.115624           
         C69       1.0000    0.18840   0.56350   0.02470   Biso      1.000     C          -0.118019           
         C70       1.0000    0.30050   0.70880   0.76950   Biso      1.000     C          0.697734  
         C71       1.0000    0.27740   0.54060   0.34630   Biso      1.000     C          -0.115624           
         C72       1.0000    0.69600   0.95570   0.26480   Biso      1.000     C          0.708903  
         H1        1.0000    0.21800   0.16480   0.91240   Biso      1.000     H          0.121611  
         H2        1.0000    0.30890   0.15120   0.22610   Biso      1.000     H          0.12427200000000001           
         H3        1.0000    0.09280   0.51530   0.65470   Biso      1.000     H          0.140744  
         H4        1.0000    0.16460   0.13680   0.55460   Biso      1.000     H          0.135133  
         H5        1.0000    0.22690   0.66790   0.97710   Biso      1.000     H          0.11506   
         H6        1.0000    0.56890   0.87440   0.76630   Biso      1.000     H          0.440666  
         H7        1.0000    0.28390   0.51110   0.30120   Biso      1.000     H          0.127843  
         H8        1.0000    0.26570   0.01460   0.57430   Biso      1.000     H          0.120151  
         H9        1.0000    0.83540   0.13680   0.05460   Biso      1.000     H          0.135132  
         H10       1.0000    0.56990   0.78730   0.76730   Biso      1.000     H          0.441284  
         H11       1.0000    0.43110   0.87440   0.26630   Biso      1.000     H          0.440666  
         H12       1.0000    0.60630   0.02490   0.71450   Biso      1.000     H          0.12570599999999998           
         H13       1.0000    0.77310   0.66790   0.47710   Biso      1.000     H          0.11506199999999998           
         H14       1.0000    0.69110   0.15120   0.72610   Biso      1.000     H          0.12427200000000001           
         H15       1.0000    0.43010   0.78730   0.26730   Biso      1.000     H          0.441284  
         H16       1.0000    0.73430   0.01460   0.07430   Biso      1.000     H          0.120154  
         H17       1.0000    0.78200   0.16480   0.41240   Biso      1.000     H          0.121611  
         H18       1.0000    0.13280   0.54380   0.98860   Biso      1.000     H          0.132628  
         H19       1.0000    0.90720   0.51530   0.15470   Biso      1.000     H          0.140742  
         H20       1.0000    0.61950   0.63590   0.81620   Biso      1.000     H          0.13029100000000002           
         H21       1.0000    0.34610   0.04950   0.89070   Biso      1.000     H          0.12996300000000002           
         H22       1.0000    0.80770   0.63640   0.14080   Biso      1.000     H          0.118468  
         H23       1.0000    0.39370   0.02490   0.21450   Biso      1.000     H          0.12570599999999998           
         H24       1.0000    0.19230   0.63640   0.64080   Biso      1.000     H          0.118468  
         H25       1.0000    0.65390   0.04950   0.39070   Biso      1.000     H          0.12996300000000002           
         H26       1.0000    0.38050   0.63590   0.31620   Biso      1.000     H          0.13029100000000002           
         H27       1.0000    0.71610   0.51110   0.80120   Biso      1.000     H          0.127844  
         H28       1.0000    0.86720   0.54380   0.48860   Biso      1.000     H          0.132628  
         O1        1.0000    0.40450   0.76020   0.40680   Biso      1.000     O          -0.699862           
         O2        1.0000    0.10950   0.21900   0.04080   Biso      1.000     O          -0.654746           
         O3        1.0000    0.32570   0.73680   0.52600   Biso      1.000     O          -0.678771           
         O4        1.0000    0.20890   0.22730   0.34430   Biso      1.000     O          -0.680505           
         O5        1.0000    0.01340   0.22840   0.72710   Biso      1.000     O          -0.611629           
         O6        1.0000    0.20420   0.26480   0.14600   Biso      1.000     O          -0.743471           
         O7        1.0000    0.95910   0.39750   0.24960   Biso      1.000     O          -0.673874           
         O8        1.0000    0.11060   0.42530   0.87120   Biso      1.000     O          -0.685772           
         O9        1.0000    0.79580   0.26480   0.64600   Biso      1.000     O          -0.743471           
         O10       1.0000    0.32840   0.94260   0.69490   Biso      1.000     O          -0.67815  
         O11       1.0000    0.42020   0.89970   0.12770   Biso      1.000     O          -0.674032           
         O12       1.0000    0.79110   0.22730   0.84430   Biso      1.000     O          -0.680505           
         O13       1.0000    0.48390   0.83060   0.26780   Biso      1.000     O          -0.873541           
         O14       1.0000    0.86970   0.25250   0.96270   Biso      1.000     O          -0.697455           
         O15       1.0000    0.65000   0.72030   0.33560   Biso      1.000     O          -0.6900149999999999           
         O16       1.0000    0.41500   0.76100   0.02900   Biso      1.000     O          -0.7416470000000001           
         O17       1.0000    0.58500   0.76100   0.52900   Biso      1.000     O          -0.7416470000000001           
         O18       1.0000    0.71030   0.75630   0.21550   Biso      1.000     O          -0.710713           
         O19       1.0000    0.85240   0.40040   0.87350   Biso      1.000     O          -0.7757609999999999           
         O20       1.0000    0.30850   0.91020   0.82120   Biso      1.000     O          -0.703177           
         O21       1.0000    0.51610   0.83060   0.76780   Biso      1.000     O          -0.873541           
         O22       1.0000    0.40140   0.89950   0.50710   Biso      1.000     O          -0.7511359999999999           
         O23       1.0000    0.04090   0.39750   0.74960   Biso      1.000     O          -0.673874           
         O24       1.0000    0.34090   0.92150   0.00900   Biso      1.000     O          -0.702643           
         O25       1.0000    0.67430   0.73680   0.02600   Biso      1.000     O          -0.678771           
         O26       1.0000    0.09040   0.44370   0.48960   Biso      1.000     O          -0.617142           
         O27       1.0000    0.90960   0.44370   0.98960   Biso      1.000     O          -0.617142           
         O28       1.0000    0.69150   0.91020   0.32120   Biso      1.000     O          -0.703177           
         O29       1.0000    0.59550   0.76020   0.90680   Biso      1.000     O          -0.699862           
         O30       1.0000    0.45140   0.93680   0.38680   Biso      1.000     O          -0.6491899999999999           
         O31       1.0000    0.88940   0.42530   0.37120   Biso      1.000     O          -0.685772           
         O32       1.0000    0.79590   0.43270   0.68640   Biso      1.000     O          -0.681678           
         O33       1.0000    0.89050   0.21900   0.54080   Biso      1.000     O          -0.654746           
         O34       1.0000    0.57980   0.89970   0.62770   Biso      1.000     O          -0.674032           
         O35       1.0000    0.65910   0.92150   0.50900   Biso      1.000     O          -0.702643           
         O36       1.0000    0.53280   0.72320   0.64700   Biso      1.000     O          -0.652848           
         O37       1.0000    0.14760   0.40040   0.37350   Biso      1.000     O          -0.7757609999999999           
         O38       1.0000    0.05000   0.26350   0.84970   Biso      1.000     O          -0.777602           
         O39       1.0000    0.98660   0.22840   0.22710   Biso      1.000     O          -0.611629           
         O40       1.0000    0.95000   0.26350   0.34970   Biso      1.000     O          -0.777602           
         O41       1.0000    0.59860   0.89950   0.00710   Biso      1.000     O          -0.7511359999999999           
         O42       1.0000    0.86910   0.41280   0.56790   Biso      1.000     O          -0.723626           
         O43       1.0000    0.13090   0.41280   0.06790   Biso      1.000     O          -0.723626           
         O44       1.0000    0.67160   0.94260   0.19490   Biso      1.000     O          -0.67815  
         O45       1.0000    0.46720   0.72320   0.14700   Biso      1.000     O          -0.652848           
         O46       1.0000    0.20410   0.43270   0.18640   Biso      1.000     O          -0.681678           
         O47       1.0000    0.28970   0.75630   0.71550   Biso      1.000     O          -0.7107140000000001           
         O48       1.0000    0.35000   0.72030   0.83560   Biso      1.000     O          -0.6900149999999999           
         O49       1.0000    0.13030   0.25250   0.46270   Biso      1.000     O          -0.697455           
         O50       1.0000    0.54860   0.93680   0.88680   Biso      1.000     O          -0.649191           
         S1        1.0000    0.22710   0.56979   0.82940   Biso      1.000     S          0.161964  
         S2        1.0000    0.22940   0.06841   0.04930   Biso      1.000     S          0.181283  
         S3        1.0000    0.83950   0.08532   0.23000   Biso      1.000     S          0.171423  
         S4        1.0000    0.78000   0.58798   0.98460   Biso      1.000     S          0.179981  
         S5        1.0000    0.66740   0.57816   0.64310   Biso      1.000     S          0.162727  
         S6        1.0000    0.16050   0.08532   0.73000   Biso      1.000     S          0.171422  
         S7        1.0000    0.67970   0.08123   0.88920   Biso      1.000     S          0.163274  
         S8        1.0000    0.32030   0.08123   0.38920   Biso      1.000     S          0.163279  
         S9        1.0000    0.77060   0.06841   0.54930   Biso      1.000     S          0.181283  
         S10       1.0000    0.77290   0.56979   0.32940   Biso      1.000     S          0.161967  
         S11       1.0000    0.22000   0.58798   0.48460   Biso      1.000     S          0.179981  
         S12       1.0000    0.33260   0.57816   0.14310   Biso      1.000     S          0.16272999999999999           
         Sm1       1.0000    0.85961   0.32519   0.76074   Biso      1.000     Sm          2.1277220000000003  
         Sm2       1.0000    0.14039   0.32519   0.26074   Biso      1.000     Sm          2.1277220000000003  
         Sm3       1.0000    0.95835   0.33276   0.47366   Biso      1.000     Sm          2.2069799999999997  
         Sm4       1.0000    0.60643   0.82912   0.12427   Biso      1.000     Sm          2.195373  
         Sm5       1.0000    0.04165   0.33276   0.97366   Biso      1.000     Sm          2.2069799999999997  
         Sm6       1.0000    0.39357   0.82912   0.62427   Biso      1.000     Sm          2.195373  
         Sm7       1.0000    0.58883   0.83105   0.40837   Biso      1.000     Sm          2.20201   
         Sm8       1.0000    0.41117   0.83105   0.90837   Biso      1.000     Sm          2.20201 