
##########################################################################
#               Crystallographic Information Format file
#               Produced by PyCifRW module
#
#  This is a CIF file.  CIF has been adopted by the International
#  Union of Crystallography as the standard for data archiving and
#  transmission.
#
#  For information on this file format, follow the CIF links at
#  http://www.iucr.org
##########################################################################

data_image0

_cell_length_a                          10.9268
_cell_length_b                          17.775
_cell_length_c                          16.874
_cell_angle_alpha                       90.211
_cell_angle_beta                        90
_cell_angle_gamma                       90
_symmetry_space_group_name_H-M          'P 1'
_symmetry_int_tables_number             1
loop_
  _symmetry_equiv_pos_as_xyz
         'x, y, z' 
loop_
  _atom_site_label
  _atom_site_occupancy
  _atom_site_fract_x
  _atom_site_fract_y
  _atom_site_fract_z
  _atom_site_thermal_displace_type
  _atom_site_B_iso_or_equiv
  _atom_site_type_symbol
  _atom_site_charge
         C1        1.0000    0.71310   0.06760   0.35760   Biso      1.000     C          -0.098253           
         C2        1.0000    0.81760   0.45170   0.61690   Biso      1.000     C          0.6183420000000001  
         C3        1.0000    0.79000   0.11060   0.01850   Biso      1.000     C          -0.109149           
         C4        1.0000    0.78330   0.52140   0.91080   Biso      1.000     C          -0.09880900000000001          
         C5        1.0000    0.29500   0.11900   0.18340   Biso      1.000     C          -0.079799           
         C6        1.0000    0.34600   0.04650   0.17500   Biso      1.000     C          -0.131047           
         C7        1.0000    0.21000   0.11060   0.51850   Biso      1.000     C          -0.10915  
         C8        1.0000    0.81510   0.56340   0.52530   Biso      1.000     C          -0.11636500000000001          
         C9        1.0000    0.30270   0.95520   0.76270   Biso      1.000     C          0.631725  
         C10       1.0000    0.65160   0.72060   0.95660   Biso      1.000     C          0.6114310000000001  
         C11       1.0000    0.21680   0.13620   0.86710   Biso      1.000     C          -0.13176400000000002          
         C12       1.0000    0.70500   0.11900   0.68340   Biso      1.000     C          -0.079807           
         C13       1.0000    0.14640   0.51080   0.76990   Biso      1.000     C          -0.097872           
         C14       1.0000    0.30500   0.70740   0.77020   Biso      1.000     C          0.6131800000000001  
         C15       1.0000    0.18240   0.45170   0.11690   Biso      1.000     C          0.6183390000000001  
         C16       1.0000    0.27850   0.54020   0.34650   Biso      1.000     C          -0.122678           
         C17       1.0000    0.78320   0.13620   0.36710   Biso      1.000     C          -0.13176500000000002          
         C18       1.0000    0.67200   0.64880   0.57340   Biso      1.000     C          -0.075896           
         C19       1.0000    0.68100   0.01260   0.60720   Biso      1.000     C          -0.078711           
         C20       1.0000    0.66490   0.61390   0.85630   Biso      1.000     C          -0.11465299999999999          
         C21       1.0000    0.18670   0.21220   0.41330   Biso      1.000     C          0.630236  
         C22       1.0000    0.74270   0.03260   0.28540   Biso      1.000     C          -0.070647           
         C23       1.0000    0.32740   0.01790   0.46360   Biso      1.000     C          -0.097991           
         C24       1.0000    0.80840   0.61020   0.18770   Biso      1.000     C          -0.12248900000000001          
         C25       1.0000    0.31900   0.01260   0.10720   Biso      1.000     C          -0.07867400000000001          
         C26       1.0000    0.81330   0.21220   0.91330   Biso      1.000     C          0.6302369999999999  
         C27       1.0000    0.69500   0.70740   0.27020   Biso      1.000     C          0.6131840000000001  
         C28       1.0000    0.13110   0.53810   0.69580   Biso      1.000     C          -0.093263           
         C29       1.0000    0.59010   0.71570   0.58270   Biso      1.000     C          0.615064  
         C30       1.0000    0.36550   0.93840   0.07920   Biso      1.000     C          0.608213  
         C31       1.0000    0.85100   0.15320   0.30200   Biso      1.000     C          -0.044569           
         C32       1.0000    0.24320   0.63410   0.01670   Biso      1.000     C          -0.111108           
         C33       1.0000    0.18490   0.56340   0.02530   Biso      1.000     C          -0.11636400000000001          
         C34       1.0000    0.93420   0.22020   0.29220   Biso      1.000     C          0.597528  
         C35       1.0000    0.06580   0.22020   0.79220   Biso      1.000     C          0.597527  
         C36       1.0000    0.85360   0.51080   0.26990   Biso      1.000     C          -0.097875           
         C37       1.0000    0.14900   0.15320   0.80200   Biso      1.000     C          -0.044573           
         C38       1.0000    0.63450   0.93840   0.57920   Biso      1.000     C          0.608216  
         C39       1.0000    0.65400   0.04650   0.67500   Biso      1.000     C          -0.131011           
         C40       1.0000    0.77490   0.52780   0.59070   Biso      1.000     C          -0.084695           
         C41       1.0000    0.22960   0.13880   0.11500   Biso      1.000     C          -0.100223           
         C42       1.0000    0.09480   0.43900   0.80070   Biso      1.000     C          0.6057779999999999  
         C43       1.0000    0.19160   0.61020   0.68770   Biso      1.000     C          -0.122501           
         C44       1.0000    0.67260   0.01790   0.96360   Biso      1.000     C          -0.09798899999999999          
         C45       1.0000    0.24280   0.63280   0.75340   Biso      1.000     C          -0.091157           
         C46       1.0000    0.31040   0.64500   0.42640   Biso      1.000     C          -0.106304           
         C47       1.0000    0.90520   0.43900   0.30070   Biso      1.000     C          0.605793  
         C48       1.0000    0.22510   0.52780   0.09070   Biso      1.000     C          -0.084694           
         C49       1.0000    0.76790   0.13920   0.94480   Biso      1.000     C          -0.104398           
         C50       1.0000    0.83080   0.21200   0.59760   Biso      1.000     C          0.635922  
         C51       1.0000    0.86890   0.53810   0.19580   Biso      1.000     C          -0.09328  
         C52       1.0000    0.32800   0.64880   0.07340   Biso      1.000     C          -0.07587999999999999          
         C53       1.0000    0.28690   0.06760   0.85760   Biso      1.000     C          -0.098256           
         C54       1.0000    0.23210   0.13920   0.44480   Biso      1.000     C          -0.104401           
         C55       1.0000    0.40990   0.71570   0.08270   Biso      1.000     C          0.615061  
         C56       1.0000    0.75720   0.63280   0.25340   Biso      1.000     C          -0.091171           
         C57       1.0000    0.75680   0.63410   0.51670   Biso      1.000     C          -0.111096           
         C58       1.0000    0.72150   0.54020   0.84650   Biso      1.000     C          -0.122637           
         C59       1.0000    0.21670   0.52140   0.41080   Biso      1.000     C          -0.098772           
         C60       1.0000    0.15150   0.44940   0.42540   Biso      1.000     C          0.604761  
         C61       1.0000    0.60460   0.94670   0.95530   Biso      1.000     C          0.595404  
         C62       1.0000    0.39540   0.94670   0.45530   Biso      1.000     C          0.595403  
         C63       1.0000    0.25730   0.03260   0.78540   Biso      1.000     C          -0.070649           
         C64       1.0000    0.16920   0.21200   0.09760   Biso      1.000     C          0.6359239999999999  
         C65       1.0000    0.73630   0.03810   0.02600   Biso      1.000     C          -0.12443299999999999          
         C66       1.0000    0.84850   0.44940   0.92540   Biso      1.000     C          0.604758  
         C67       1.0000    0.33510   0.61390   0.35630   Biso      1.000     C          -0.114624           
         C68       1.0000    0.77040   0.13880   0.61500   Biso      1.000     C          -0.100227           
         C69       1.0000    0.34840   0.72060   0.45660   Biso      1.000     C          0.611437  
         C70       1.0000    0.26370   0.03810   0.52600   Biso      1.000     C          -0.12443199999999999          
         C71       1.0000    0.68960   0.64500   0.92640   Biso      1.000     C          -0.106271           
         C72       1.0000    0.69730   0.95520   0.26270   Biso      1.000     C          0.631726  
         Eu1       1.0000    0.59065   0.83086   0.40776   Biso      1.000     Eu          1.373476  
         Eu2       1.0000    0.60400   0.82926   0.12467   Biso      1.000     Eu          1.3694520000000001  
         Eu3       1.0000    0.03898   0.33237   0.97380   Biso      1.000     Eu          1.405046  
         Eu4       1.0000    0.39600   0.82926   0.62467   Biso      1.000     Eu          1.36944   
         Eu5       1.0000    0.14122   0.32560   0.26085   Biso      1.000     Eu          1.361386  
         Eu6       1.0000    0.40935   0.83086   0.90776   Biso      1.000     Eu          1.373472  
         Eu7       1.0000    0.96102   0.33237   0.47380   Biso      1.000     Eu          1.40504   
         Eu8       1.0000    0.85878   0.32560   0.76085   Biso      1.000     Eu          1.3613680000000001  
         H1        1.0000    0.77490   0.66740   0.47590   Biso      1.000     H          0.12913   
         H2        1.0000    0.87340   0.54420   0.49050   Biso      1.000     H          0.13556700000000002           
         H3        1.0000    0.71500   0.51040   0.80120   Biso      1.000     H          0.131668  
         H4        1.0000    0.56780   0.78680   0.76910   Biso      1.000     H          0.414757  
         H5        1.0000    0.74530   0.00810   0.07060   Biso      1.000     H          0.127125  
         H6        1.0000    0.83400   0.13510   0.05810   Biso      1.000     H          0.13281800000000002           
         H7        1.0000    0.61680   0.63670   0.81780   Biso      1.000     H          0.130445  
         H8        1.0000    0.38320   0.63670   0.31780   Biso      1.000     H          0.130444  
         H9        1.0000    0.65660   0.04930   0.39410   Biso      1.000     H          0.13331600000000002           
         H10       1.0000    0.43220   0.78680   0.26910   Biso      1.000     H          0.414758  
         H11       1.0000    0.39500   0.02440   0.21370   Biso      1.000     H          0.135143  
         H12       1.0000    0.60500   0.02440   0.71370   Biso      1.000     H          0.135141  
         H13       1.0000    0.43270   0.87410   0.26890   Biso      1.000     H          0.41144200000000003           
         H14       1.0000    0.21800   0.16550   0.91290   Biso      1.000     H          0.134985  
         H15       1.0000    0.19370   0.63740   0.64070   Biso      1.000     H          0.128467  
         H16       1.0000    0.80630   0.63740   0.14070   Biso      1.000     H          0.128466  
         H17       1.0000    0.78200   0.16550   0.41290   Biso      1.000     H          0.134985  
         H18       1.0000    0.16600   0.13510   0.55810   Biso      1.000     H          0.132819  
         H19       1.0000    0.08770   0.51390   0.65570   Biso      1.000     H          0.141837  
         H20       1.0000    0.91230   0.51390   0.15570   Biso      1.000     H          0.14184000000000002           
         H21       1.0000    0.25470   0.00810   0.57060   Biso      1.000     H          0.127125  
         H22       1.0000    0.69670   0.14940   0.72800   Biso      1.000     H          0.130761  
         H23       1.0000    0.22510   0.66740   0.97590   Biso      1.000     H          0.12913   
         H24       1.0000    0.30330   0.14940   0.22800   Biso      1.000     H          0.13076   
         H25       1.0000    0.28500   0.51040   0.30120   Biso      1.000     H          0.13167   
         H26       1.0000    0.56730   0.87410   0.76890   Biso      1.000     H          0.41144200000000003           
         H27       1.0000    0.12660   0.54420   0.99050   Biso      1.000     H          0.135568  
         H28       1.0000    0.34340   0.04930   0.89410   Biso      1.000     H          0.13331600000000002           
         O1        1.0000    0.67370   0.73750   0.02660   Biso      1.000     O          -0.550484           
         O2        1.0000    0.79710   0.43260   0.68750   Biso      1.000     O          -0.554443           
         O3        1.0000    0.40620   0.76090   0.40750   Biso      1.000     O          -0.5088550000000001           
         O4        1.0000    0.95960   0.39720   0.24940   Biso      1.000     O          -0.49276899999999996          
         O5        1.0000    0.54790   0.93570   0.88770   Biso      1.000     O          -0.572902           
         O6        1.0000    0.04040   0.39720   0.74940   Biso      1.000     O          -0.49274399999999996          
         O7        1.0000    0.64740   0.71930   0.33560   Biso      1.000     O          -0.5450020000000001           
         O8        1.0000    0.58370   0.89770   0.62630   Biso      1.000     O          -0.525688           
         O9        1.0000    0.46400   0.72340   0.14520   Biso      1.000     O          -0.556724           
         O10       1.0000    0.10710   0.21890   0.04090   Biso      1.000     O          -0.5513819999999999           
         O11       1.0000    0.33970   0.92210   0.00590   Biso      1.000     O          -0.554707           
         O12       1.0000    0.20110   0.26480   0.14640   Biso      1.000     O          -0.563396           
         O13       1.0000    0.53600   0.72340   0.64520   Biso      1.000     O          -0.556721           
         O14       1.0000    0.05140   0.26290   0.85120   Biso      1.000     O          -0.592921           
         O15       1.0000    0.58770   0.76130   0.52560   Biso      1.000     O          -0.580222           
         O16       1.0000    0.79890   0.26480   0.64640   Biso      1.000     O          -0.563383           
         O17       1.0000    0.98720   0.22890   0.22760   Biso      1.000     O          -0.544602           
         O18       1.0000    0.51420   0.83030   0.76950   Biso      1.000     O          -0.782812           
         O19       1.0000    0.41230   0.76130   0.02560   Biso      1.000     O          -0.5802229999999999           
         O20       1.0000    0.32980   0.94200   0.69570   Biso      1.000     O          -0.535561           
         O21       1.0000    0.13120   0.25250   0.46270   Biso      1.000     O          -0.527907           
         O22       1.0000    0.90790   0.44120   0.98930   Biso      1.000     O          -0.545115           
         O23       1.0000    0.32630   0.73750   0.52660   Biso      1.000     O          -0.550485           
         O24       1.0000    0.29280   0.75640   0.71380   Biso      1.000     O          -0.532958           
         O25       1.0000    0.40040   0.89970   0.50880   Biso      1.000     O          -0.557369           
         O26       1.0000    0.66030   0.92210   0.50590   Biso      1.000     O          -0.554707           
         O27       1.0000    0.59960   0.89970   0.00880   Biso      1.000     O          -0.55737  
         O28       1.0000    0.30860   0.91070   0.82070   Biso      1.000     O          -0.499717           
         O29       1.0000    0.86880   0.25250   0.96270   Biso      1.000     O          -0.527913           
         O30       1.0000    0.79180   0.22680   0.84310   Biso      1.000     O          -0.589771           
         O31       1.0000    0.67020   0.94200   0.19570   Biso      1.000     O          -0.535565           
         O32       1.0000    0.01280   0.22890   0.72760   Biso      1.000     O          -0.5445979999999999           
         O33       1.0000    0.89290   0.21890   0.54090   Biso      1.000     O          -0.55138  
         O34       1.0000    0.70720   0.75640   0.21380   Biso      1.000     O          -0.532961           
         O35       1.0000    0.69140   0.91070   0.32070   Biso      1.000     O          -0.49971800000000005          
         O36       1.0000    0.15110   0.39980   0.37260   Biso      1.000     O          -0.565661           
         O37       1.0000    0.45210   0.93570   0.38770   Biso      1.000     O          -0.572905           
         O38       1.0000    0.20290   0.43260   0.18750   Biso      1.000     O          -0.554437           
         O39       1.0000    0.09210   0.44120   0.48930   Biso      1.000     O          -0.545125           
         O40       1.0000    0.35260   0.71930   0.83560   Biso      1.000     O          -0.545008           
         O41       1.0000    0.48580   0.83030   0.26950   Biso      1.000     O          -0.782814           
         O42       1.0000    0.94860   0.26290   0.35120   Biso      1.000     O          -0.5929220000000001           
         O43       1.0000    0.84890   0.39980   0.87260   Biso      1.000     O          -0.56566  
         O44       1.0000    0.10810   0.42560   0.87150   Biso      1.000     O          -0.55624  
         O45       1.0000    0.20820   0.22680   0.34310   Biso      1.000     O          -0.58977  
         O46       1.0000    0.12540   0.41120   0.06920   Biso      1.000     O          -0.524062           
         O47       1.0000    0.41630   0.89770   0.12630   Biso      1.000     O          -0.525686           
         O48       1.0000    0.59380   0.76090   0.90750   Biso      1.000     O          -0.508861           
         O49       1.0000    0.89190   0.42560   0.37150   Biso      1.000     O          -0.556241           
         O50       1.0000    0.87460   0.41120   0.56920   Biso      1.000     O          -0.524062           
         S1        1.0000    0.77720   0.58766   0.98490   Biso      1.000     S          0.156032  
         S2        1.0000    0.67780   0.08172   0.88960   Biso      1.000     S          0.164271  
         S3        1.0000    0.77410   0.56954   0.32960   Biso      1.000     S          0.162904  
         S4        1.0000    0.16180   0.08538   0.72970   Biso      1.000     S          0.18374400000000002           
         S5        1.0000    0.33010   0.57844   0.14296   Biso      1.000     S          0.166389  
         S6        1.0000    0.83820   0.08538   0.22970   Biso      1.000     S          0.18374400000000002           
         S7        1.0000    0.22280   0.58766   0.48490   Biso      1.000     S          0.156032  
         S8        1.0000    0.77230   0.06773   0.54840   Biso      1.000     S          0.189717  
         S9        1.0000    0.32220   0.08172   0.38960   Biso      1.000     S          0.164272  
         S10       1.0000    0.66990   0.57844   0.64296   Biso      1.000     S          0.166389  
         S11       1.0000    0.22590   0.56954   0.82960   Biso      1.000     S          0.162903  
         S12       1.0000    0.22770   0.06773   0.04840   Biso      1.000     S          0.189712 