
##########################################################################
#               Crystallographic Information Format file
#               Produced by PyCifRW module
#
#  This is a CIF file.  CIF has been adopted by the International
#  Union of Crystallography as the standard for data archiving and
#  transmission.
#
#  For information on this file format, follow the CIF links at
#  http://www.iucr.org
##########################################################################

data_image0

_cell_length_a                          12.989
_cell_length_b                          13.8218
_cell_length_c                          9.2766
_cell_angle_alpha                       90
_cell_angle_beta                        124.43
_cell_angle_gamma                       90
_symmetry_space_group_name_H-M          'P 1'
_symmetry_int_tables_number             1
loop_
  _symmetry_equiv_pos_as_xyz
         'x, y, z' 
loop_
  _atom_site_label
  _atom_site_occupancy
  _atom_site_fract_x
  _atom_site_fract_y
  _atom_site_fract_z
  _atom_site_thermal_displace_type
  _atom_site_B_iso_or_equiv
  _atom_site_type_symbol
  _atom_site_charge
         C1        1.0000    0.54620   0.38020   0.69930   Biso      1.000     C          -0.56872  
         C2        1.0000    0.08230   0.56960   0.43340   Biso      1.000     C          -0.564549           
         C3        1.0000    0.04620   0.11980   0.19930   Biso      1.000     C          -0.568719           
         C4        1.0000    0.18150   0.51280   0.59150   Biso      1.000     C          0.396417  
         C5        1.0000    0.98510   0.21670   0.15720   Biso      1.000     C          0.416983  
         C6        1.0000    0.58230   0.93040   0.93340   Biso      1.000     C          -0.564548           
         C7        1.0000    0.48510   0.28330   0.65720   Biso      1.000     C          0.416983  
         C8        1.0000    0.98510   0.78330   0.65720   Biso      1.000     C          0.416984  
         C9        1.0000    0.68150   0.98720   0.09150   Biso      1.000     C          0.396421  
         C10       1.0000    0.58230   0.06960   0.43340   Biso      1.000     C          -0.564548           
         C11       1.0000    0.18150   0.48720   0.09150   Biso      1.000     C          0.396421  
         C12       1.0000    0.04620   0.88020   0.69930   Biso      1.000     C          -0.568719           
         C13       1.0000    0.68150   0.01280   0.59150   Biso      1.000     C          0.396419  
         C14       1.0000    0.48510   0.71670   0.15720   Biso      1.000     C          0.416984  
         C15       1.0000    0.54620   0.61980   0.19930   Biso      1.000     C          -0.568719           
         C16       1.0000    0.08230   0.43040   0.93340   Biso      1.000     C          -0.564548           
         H1        1.0000    0.48490   0.57140   0.12820   Biso      1.000     H          0.177197  
         H2        1.0000    0.01030   0.42310   0.93680   Biso      1.000     H          0.183642  
         H3        1.0000    0.01030   0.57690   0.43680   Biso      1.000     H          0.183641  
         H4        1.0000    0.11440   0.63230   0.43410   Biso      1.000     H          0.184724  
         H5        1.0000    0.05940   0.53570   0.32890   Biso      1.000     H          0.176132  
         H6        1.0000    0.11440   0.36770   0.93410   Biso      1.000     H          0.184724  
         H7        1.0000    0.10960   0.12020   0.17630   Biso      1.000     H          0.190025  
         H8        1.0000    0.08340   0.10540   0.32050   Biso      1.000     H          0.19459   
         H9        1.0000    0.98490   0.07140   0.12820   Biso      1.000     H          0.177197  
         H10       1.0000    0.05940   0.46430   0.82890   Biso      1.000     H          0.176131  
         H11       1.0000    0.55940   0.96430   0.82890   Biso      1.000     H          0.176132  
         H12       1.0000    0.08340   0.89460   0.82050   Biso      1.000     H          0.194591  
         H13       1.0000    0.48490   0.42860   0.62820   Biso      1.000     H          0.177196  
         H14       1.0000    0.60960   0.37980   0.67630   Biso      1.000     H          0.190026  
         H15       1.0000    0.58340   0.39460   0.82050   Biso      1.000     H          0.19459   
         H16       1.0000    0.98490   0.92860   0.62820   Biso      1.000     H          0.177196  
         H17       1.0000    0.61440   0.86770   0.93410   Biso      1.000     H          0.184724  
         H18       1.0000    0.51030   0.07690   0.43680   Biso      1.000     H          0.183642  
         H19       1.0000    0.61440   0.13230   0.43410   Biso      1.000     H          0.184724  
         H20       1.0000    0.55940   0.03570   0.32890   Biso      1.000     H          0.176131  
         H21       1.0000    0.60960   0.62020   0.17630   Biso      1.000     H          0.190026  
         H22       1.0000    0.58340   0.60540   0.32050   Biso      1.000     H          0.194591  
         H23       1.0000    0.10960   0.87980   0.67630   Biso      1.000     H          0.190026  
         H24       1.0000    0.51030   0.92310   0.93680   Biso      1.000     H          0.183641  
         N1        1.0000    0.95630   0.37130   0.16120   Biso      1.000     N          -0.054514           
         N2        1.0000    0.86740   0.76640   0.54390   Biso      1.000     N          -0.279026           
         N3        1.0000    0.04560   0.69940   0.73240   Biso      1.000     N          -0.295721           
         N4        1.0000    0.22560   0.57180   0.08020   Biso      1.000     N          -0.282383           
         N5        1.0000    0.31160   0.59770   0.24880   Biso      1.000     N          -0.081831           
         N6        1.0000    0.84980   0.66770   0.54690   Biso      1.000     N          -0.088567           
         N7        1.0000    0.23500   0.46050   0.25670   Biso      1.000     N          -0.291385           
         N8        1.0000    0.45630   0.12870   0.66120   Biso      1.000     N          -0.054513           
         N9        1.0000    0.31540   0.53350   0.35350   Biso      1.000     N          -0.089572           
         N10       1.0000    0.95630   0.62870   0.66120   Biso      1.000     N          -0.054458           
         N11       1.0000    0.34980   0.16770   0.54690   Biso      1.000     N          -0.088521           
         N12       1.0000    0.36740   0.73360   0.04390   Biso      1.000     N          -0.279024           
         N13       1.0000    0.54560   0.80060   0.23240   Biso      1.000     N          -0.295722           
         N14       1.0000    0.81540   0.96650   0.85350   Biso      1.000     N          -0.089621           
         N15       1.0000    0.72560   0.92820   0.58020   Biso      1.000     N          -0.282388           
         N16       1.0000    0.81160   0.90230   0.74880   Biso      1.000     N          -0.081794           
         N17       1.0000    0.34980   0.83230   0.04690   Biso      1.000     N          -0.088567           
         N18       1.0000    0.73500   0.03950   0.75670   Biso      1.000     N          -0.291367           
         N19       1.0000    0.45630   0.87130   0.16120   Biso      1.000     N          -0.054458           
         N20       1.0000    0.86740   0.23360   0.04390   Biso      1.000     N          -0.279031           
         N21       1.0000    0.04560   0.30060   0.23240   Biso      1.000     N          -0.29571  
         N22       1.0000    0.73500   0.96050   0.25670   Biso      1.000     N          -0.291382           
         N23       1.0000    0.31540   0.46650   0.85350   Biso      1.000     N          -0.08962  
         N24       1.0000    0.31160   0.40230   0.74880   Biso      1.000     N          -0.081805           
         N25       1.0000    0.84980   0.33230   0.04690   Biso      1.000     N          -0.088517           
         N26       1.0000    0.23500   0.53950   0.75670   Biso      1.000     N          -0.291368           
         N27       1.0000    0.36740   0.26640   0.54390   Biso      1.000     N          -0.279026           
         N28       1.0000    0.54560   0.19940   0.73240   Biso      1.000     N          -0.295711           
         N29       1.0000    0.81540   0.03350   0.35350   Biso      1.000     N          -0.089608           
         N30       1.0000    0.72560   0.07180   0.08020   Biso      1.000     N          -0.282387           
         N31       1.0000    0.81160   0.09770   0.24880   Biso      1.000     N          -0.081795           
         N32       1.0000    0.22560   0.42820   0.58020   Biso      1.000     N          -0.282375           
         Zn1       1.0000    0.22046   0.34978   0.38318   Biso      1.000     Zn          0.676496  
         Zn2       1.0000    0.22046   0.65022   0.88318   Biso      1.000     Zn          0.676497  
         Zn3       1.0000    0.72046   0.15022   0.88318   Biso      1.000     Zn          0.676497  
         Zn4       1.0000    0.72046   0.84978   0.38318   Biso      1.000     Zn          0.676499 