
##########################################################################
#               Crystallographic Information Format file
#               Produced by PyCifRW module
#
#  This is a CIF file.  CIF has been adopted by the International
#  Union of Crystallography as the standard for data archiving and
#  transmission.
#
#  For information on this file format, follow the CIF links at
#  http://www.iucr.org
##########################################################################

data_image0

_cell_length_a                          10.39
_cell_length_b                          12.295
_cell_length_c                          12.497
_cell_angle_alpha                       79.31
_cell_angle_beta                        68.2
_cell_angle_gamma                       69.58
_symmetry_space_group_name_H-M          'P 1'
_symmetry_int_tables_number             1
loop_
  _symmetry_equiv_pos_as_xyz
         'x, y, z' 
loop_
  _atom_site_label
  _atom_site_occupancy
  _atom_site_fract_x
  _atom_site_fract_y
  _atom_site_fract_z
  _atom_site_thermal_displace_type
  _atom_site_B_iso_or_equiv
  _atom_site_type_symbol
  _atom_site_charge
         C1        1.0000    0.17880   0.64950   0.27300   Biso      1.000     C          0.10336300000000001           
         C2        1.0000    0.36110   0.58670   0.39680   Biso      1.000     C          -0.14740799999999998          
         C3        1.0000    0.82120   0.35050   0.72700   Biso      1.000     C          0.10336300000000001           
         C4        1.0000    0.40740   0.61060   0.27960   Biso      1.000     C          0.092038  
         C5        1.0000    0.04570   0.10750   0.08250   Biso      1.000     C          -0.145325           
         C6        1.0000    0.87790   0.37490   0.61000   Biso      1.000     C          -0.150198           
         C7        1.0000    0.59260   0.38940   0.72040   Biso      1.000     C          0.092026  
         C8        1.0000    0.12210   0.62510   0.39000   Biso      1.000     C          -0.150198           
         C9        1.0000    0.21680   0.59380   0.45380   Biso      1.000     C          0.035927  
         C10       1.0000    0.15950   0.56890   0.58410   Biso      1.000     C          0.5660609999999999  
         C11       1.0000    0.25030   0.10860   0.12360   Biso      1.000     C          -0.140022           
         C12       1.0000    0.63890   0.41330   0.60320   Biso      1.000     C          -0.147396           
         C13       1.0000    0.78320   0.40620   0.54620   Biso      1.000     C          0.035925  
         C14       1.0000    0.74150   0.07800   0.93680   Biso      1.000     C          0.570579  
         C15       1.0000    0.81660   0.95260   0.91040   Biso      1.000     C          0.032724  
         C16       1.0000    0.95430   0.89250   0.91750   Biso      1.000     C          -0.145324           
         C17       1.0000    0.98430   0.22310   0.10760   Biso      1.000     C          0.08521000000000001           
         C18       1.0000    0.74970   0.89140   0.87640   Biso      1.000     C          -0.140021           
         C19       1.0000    0.84050   0.43110   0.41590   Biso      1.000     C          0.5660609999999999  
         C20       1.0000    0.01570   0.77690   0.89240   Biso      1.000     C          0.08521000000000001           
         C21       1.0000    0.18070   0.22330   0.14880   Biso      1.000     C          0.09650299999999999           
         C22       1.0000    0.81930   0.77670   0.85120   Biso      1.000     C          0.09650299999999999           
         C23       1.0000    0.18340   0.04740   0.08960   Biso      1.000     C          0.032726  
         C24       1.0000    0.25850   0.92200   0.06320   Biso      1.000     C          0.570579  
         Cd1       1.0000    0.40038   0.69632   0.02158   Biso      1.000     Cd          0.996294  
         Cd2       1.0000    0.59962   0.30368   0.97842   Biso      1.000     Cd          0.996294  
         Cd3       1.0000    0.04869   0.52707   0.81438   Biso      1.000     Cd          1.025798  
         Cd4       1.0000    0.95131   0.47293   0.18562   Biso      1.000     Cd          1.025798  
         H1        1.0000    0.88450   0.32680   0.76930   Biso      1.000     H          0.086791  
         H2        1.0000    0.49500   0.39480   0.75820   Biso      1.000     H          0.10167000000000001           
         H3        1.0000    0.57390   0.43400   0.56260   Biso      1.000     H          0.136444  
         H4        1.0000    0.00440   0.92960   0.93890   Biso      1.000     H          0.134233  
         H5        1.0000    0.65740   0.92820   0.87070   Biso      1.000     H          0.135484  
         H6        1.0000    0.10630   0.73670   0.90000   Biso      1.000     H          0.097808  
         H7        1.0000    0.97540   0.37070   0.57470   Biso      1.000     H          0.13902799999999998           
         H8        1.0000    0.22800   0.26240   0.17120   Biso      1.000     H          0.096     
         H9        1.0000    0.50500   0.60520   0.24180   Biso      1.000     H          0.10166900000000001           
         H10       1.0000    0.02460   0.62930   0.42530   Biso      1.000     H          0.13902799999999998           
         H11       1.0000    0.11550   0.67320   0.23070   Biso      1.000     H          0.086791  
         H12       1.0000    0.42610   0.56600   0.43740   Biso      1.000     H          0.136445  
         H13       1.0000    0.99560   0.07040   0.06110   Biso      1.000     H          0.134233  
         H14       1.0000    0.34260   0.07180   0.12930   Biso      1.000     H          0.135484  
         H15       1.0000    0.89370   0.26330   0.10000   Biso      1.000     H          0.097808  
         H16       1.0000    0.77200   0.73760   0.82880   Biso      1.000     H          0.096     
         N1        1.0000    0.68270   0.35850   0.78330   Biso      1.000     N          -0.24804099999999998          
         N2        1.0000    0.04920   0.28030   0.14260   Biso      1.000     N          -0.247714           
         N3        1.0000    0.31730   0.64150   0.21670   Biso      1.000     N          -0.248042           
         N4        1.0000    0.95080   0.71970   0.85740   Biso      1.000     N          -0.247714           
         O1        1.0000    0.37030   0.37110   0.97320   Biso      1.000     O          -0.665714           
         O2        1.0000    0.38350   0.87660   0.06450   Biso      1.000     O          -0.539283           
         O3        1.0000    0.19070   0.86790   0.04070   Biso      1.000     O          -0.5754229999999999           
         O4        1.0000    0.82660   0.50430   0.06900   Biso      1.000     O          -0.7035640000000001           
         O5        1.0000    0.66870   0.42210   0.04230   Biso      1.000     O          -0.690983           
         O6        1.0000    0.82110   0.50850   0.88450   Biso      1.000     O          -0.692112           
         O7        1.0000    0.62970   0.62890   0.02680   Biso      1.000     O          -0.665714           
         O8        1.0000    0.97050   0.42150   0.36980   Biso      1.000     O          -0.550137           
         O9        1.0000    0.02950   0.57850   0.63020   Biso      1.000     O          -0.550137           
         O10       1.0000    0.75300   0.45850   0.36190   Biso      1.000     O          -0.570641           
         O11       1.0000    0.80930   0.13210   0.95930   Biso      1.000     O          -0.5754229999999999           
         O12       1.0000    0.17340   0.49570   0.93100   Biso      1.000     O          -0.7035640000000001           
         O13       1.0000    0.33130   0.57790   0.95770   Biso      1.000     O          -0.690983           
         O14       1.0000    0.17890   0.49150   0.11550   Biso      1.000     O          -0.692112           
         O15       1.0000    0.24700   0.54150   0.63810   Biso      1.000     O          -0.570641           
         O16       1.0000    0.61650   0.12340   0.93550   Biso      1.000     O          -0.539283           
         S1        1.0000    0.26480   0.48507   0.99508   Biso      1.000     S          1.534611  
         S2        1.0000    0.73520   0.51493   0.00492   Biso      1.000     S          1.534611 