
##########################################################################
#               Crystallographic Information Format file
#               Produced by PyCifRW module
#
#  This is a CIF file.  CIF has been adopted by the International
#  Union of Crystallography as the standard for data archiving and
#  transmission.
#
#  For information on this file format, follow the CIF links at
#  http://www.iucr.org
##########################################################################

data_image0

_cell_length_a                          9.86
_cell_length_b                          11.65
_cell_length_c                          13.113
_cell_angle_alpha                       90
_cell_angle_beta                        90
_cell_angle_gamma                       101.99
_symmetry_space_group_name_H-M          'P 1'
_symmetry_int_tables_number             1
loop_
  _symmetry_equiv_pos_as_xyz
         'x, y, z' 
loop_
  _atom_site_label
  _atom_site_occupancy
  _atom_site_fract_x
  _atom_site_fract_y
  _atom_site_fract_z
  _atom_site_thermal_displace_type
  _atom_site_B_iso_or_equiv
  _atom_site_type_symbol
  _atom_site_charge
         C1        1.0000    0.35370   0.65380   0.18830   Biso      1.000     C          -0.167226           
         C2        1.0000    0.46330   0.35370   0.38480   Biso      1.000     C          0.582115  
         C3        1.0000    0.73900   0.16400   0.20160   Biso      1.000     C          0.086011  
         C4        1.0000    0.53670   0.14630   0.88480   Biso      1.000     C          0.582115  
         C5        1.0000    0.64630   0.84620   0.68830   Biso      1.000     C          -0.167226           
         C6        1.0000    0.96960   0.85290   0.10920   Biso      1.000     C          0.601456  
         C7        1.0000    0.91930   0.76880   0.19530   Biso      1.000     C          0.029113  
         C8        1.0000    0.41840   0.27120   0.29600   Biso      1.000     C          0.043078  
         C9        1.0000    0.26100   0.83600   0.79840   Biso      1.000     C          0.086011  
         C10       1.0000    0.64630   0.34620   0.81170   Biso      1.000     C          -0.167226           
         C11       1.0000    0.96030   0.14540   0.16830   Biso      1.000     C          0.087194  
         C12       1.0000    0.98830   0.77740   0.75410   Biso      1.000     C          -0.164636           
         C13       1.0000    0.53670   0.64630   0.61520   Biso      1.000     C          0.582115  
         C14       1.0000    0.31520   0.08150   0.22840   Biso      1.000     C          0.081959  
         C15       1.0000    0.03970   0.85460   0.83170   Biso      1.000     C          0.087198  
         C16       1.0000    0.68480   0.91850   0.77160   Biso      1.000     C          0.081961  
         C17       1.0000    0.41840   0.77120   0.20400   Biso      1.000     C          0.043078  
         C18       1.0000    0.46330   0.85370   0.11520   Biso      1.000     C          0.582115  
         C19       1.0000    0.22100   0.76300   0.71550   Biso      1.000     C          -0.168018           
         C20       1.0000    0.03040   0.64710   0.60920   Biso      1.000     C          0.601456  
         C21       1.0000    0.98830   0.27740   0.74590   Biso      1.000     C          -0.164635           
         C22       1.0000    0.91930   0.26880   0.30470   Biso      1.000     C          0.029112  
         C23       1.0000    0.44120   0.31070   0.19630   Biso      1.000     C          -0.174008           
         C24       1.0000    0.55880   0.68930   0.80370   Biso      1.000     C          -0.174008           
         C25       1.0000    0.39340   0.23230   0.11630   Biso      1.000     C          0.096637  
         C26       1.0000    0.03970   0.35460   0.66830   Biso      1.000     C          0.087197  
         C27       1.0000    0.60660   0.76770   0.88370   Biso      1.000     C          0.096637  
         C28       1.0000    0.58160   0.22880   0.79600   Biso      1.000     C          0.043078  
         C29       1.0000    0.08070   0.23120   0.80470   Biso      1.000     C          0.029115  
         C30       1.0000    0.39340   0.73230   0.38370   Biso      1.000     C          0.096637  
         C31       1.0000    0.03040   0.14710   0.89080   Biso      1.000     C          0.601458  
         C32       1.0000    0.96030   0.64540   0.33170   Biso      1.000     C          0.087194  
         C33       1.0000    0.96960   0.35290   0.39080   Biso      1.000     C          0.601458  
         C34       1.0000    0.77900   0.23700   0.28450   Biso      1.000     C          -0.168014           
         C35       1.0000    0.08070   0.73120   0.69530   Biso      1.000     C          0.029119  
         C36       1.0000    0.22100   0.26300   0.78450   Biso      1.000     C          -0.168015           
         C37       1.0000    0.44120   0.81070   0.30370   Biso      1.000     C          -0.174009           
         C38       1.0000    0.31520   0.58150   0.27160   Biso      1.000     C          0.081961  
         C39       1.0000    0.77900   0.73700   0.21550   Biso      1.000     C          -0.168014           
         C40       1.0000    0.55880   0.18930   0.69630   Biso      1.000     C          -0.174008           
         C41       1.0000    0.73900   0.66400   0.29840   Biso      1.000     C          0.086012  
         C42       1.0000    0.35370   0.15380   0.31170   Biso      1.000     C          -0.167224           
         C43       1.0000    0.60660   0.26770   0.61630   Biso      1.000     C          0.096637  
         C44       1.0000    0.68480   0.41850   0.72840   Biso      1.000     C          0.081961  
         C45       1.0000    0.01170   0.22260   0.24590   Biso      1.000     C          -0.164629           
         C46       1.0000    0.26100   0.33600   0.70160   Biso      1.000     C          0.086012  
         C47       1.0000    0.58160   0.72880   0.70400   Biso      1.000     C          0.043078  
         C48       1.0000    0.01170   0.72260   0.25410   Biso      1.000     C          -0.164629           
         Cd1       1.0000    0.25672   0.49402   0.50469   Biso      1.000     Cd          0.946566  
         Cd2       1.0000    0.74328   0.50598   0.49531   Biso      1.000     Cd          0.946566  
         Cd3       1.0000    0.74328   0.00598   0.00469   Biso      1.000     Cd          0.946566  
         Cd4       1.0000    0.25672   0.99402   0.99531   Biso      1.000     Cd          0.946566  
         H1        1.0000    0.71420   0.76380   0.17540   Biso      1.000     H          0.125591  
         H2        1.0000    0.40550   0.75920   0.45050   Biso      1.000     H          0.097008  
         H3        1.0000    0.48720   0.38730   0.18270   Biso      1.000     H          0.133165  
         H4        1.0000    0.33680   0.62450   0.12250   Biso      1.000     H          0.135765  
         H5        1.0000    0.10650   0.74300   0.24160   Biso      1.000     H          0.122985  
         H6        1.0000    0.48720   0.88730   0.31730   Biso      1.000     H          0.133165  
         H7        1.0000    0.72340   0.49740   0.73940   Biso      1.000     H          0.096073  
         H8        1.0000    0.66320   0.87550   0.62250   Biso      1.000     H          0.135765  
         H9        1.0000    0.71420   0.26380   0.32460   Biso      1.000     H          0.125591  
         H10       1.0000    0.33680   0.12450   0.37750   Biso      1.000     H          0.135765  
         H11       1.0000    0.51280   0.11270   0.68270   Biso      1.000     H          0.133165  
         H12       1.0000    0.66320   0.37550   0.87750   Biso      1.000     H          0.135766  
         H13       1.0000    0.27660   0.00260   0.23940   Biso      1.000     H          0.096073  
         H14       1.0000    0.40550   0.25920   0.04950   Biso      1.000     H          0.097007  
         H15       1.0000    0.64480   0.64310   0.31330   Biso      1.000     H          0.08164   
         H16       1.0000    0.02110   0.60880   0.36720   Biso      1.000     H          0.09093   
         H17       1.0000    0.51280   0.61270   0.81730   Biso      1.000     H          0.133165  
         H18       1.0000    0.35520   0.85690   0.81330   Biso      1.000     H          0.08164   
         H19       1.0000    0.89350   0.25700   0.75840   Biso      1.000     H          0.122986  
         H20       1.0000    0.97890   0.89120   0.86720   Biso      1.000     H          0.090929  
         H21       1.0000    0.02110   0.10880   0.13280   Biso      1.000     H          0.09093   
         H22       1.0000    0.72340   0.99740   0.76060   Biso      1.000     H          0.096073  
         H23       1.0000    0.10650   0.24300   0.25840   Biso      1.000     H          0.122985  
         H24       1.0000    0.59450   0.24080   0.54950   Biso      1.000     H          0.097007  
         H25       1.0000    0.28580   0.23620   0.82460   Biso      1.000     H          0.125591  
         H26       1.0000    0.59450   0.74080   0.95050   Biso      1.000     H          0.097007  
         H27       1.0000    0.27660   0.50260   0.26060   Biso      1.000     H          0.096073  
         H28       1.0000    0.28580   0.73620   0.67540   Biso      1.000     H          0.125591  
         H29       1.0000    0.97890   0.39120   0.63280   Biso      1.000     H          0.090929  
         H30       1.0000    0.89350   0.75700   0.74160   Biso      1.000     H          0.122986  
         H31       1.0000    0.35520   0.35690   0.68670   Biso      1.000     H          0.08164   
         H32       1.0000    0.64480   0.14310   0.18670   Biso      1.000     H          0.08164   
         N1        1.0000    0.17460   0.37870   0.64230   Biso      1.000     N          -0.213808           
         N2        1.0000    0.33170   0.62160   0.36760   Biso      1.000     N          -0.224635           
         N3        1.0000    0.82540   0.12130   0.14230   Biso      1.000     N          -0.213807           
         N4        1.0000    0.66830   0.87840   0.86760   Biso      1.000     N          -0.224635           
         N5        1.0000    0.82540   0.62130   0.35770   Biso      1.000     N          -0.213807           
         N6        1.0000    0.66830   0.37840   0.63240   Biso      1.000     N          -0.224635           
         N7        1.0000    0.33170   0.12160   0.13240   Biso      1.000     N          -0.224635           
         N8        1.0000    0.17460   0.87870   0.85770   Biso      1.000     N          -0.213808           
         O1        1.0000    0.88210   0.37280   0.45360   Biso      1.000     O          -0.599883           
         O2        1.0000    0.41630   0.58740   0.62050   Biso      1.000     O          -0.568091           
         O3        1.0000    0.11790   0.12720   0.95360   Biso      1.000     O          -0.599883           
         O4        1.0000    0.09640   0.39420   0.39220   Biso      1.000     O          -0.575985           
         O5        1.0000    0.90360   0.60580   0.60780   Biso      1.000     O          -0.575984           
         O6        1.0000    0.61920   0.64730   0.54380   Biso      1.000     O          -0.581011           
         O7        1.0000    0.38080   0.35270   0.45620   Biso      1.000     O          -0.581011           
         O8        1.0000    0.41630   0.08740   0.87950   Biso      1.000     O          -0.568091           
         O9        1.0000    0.58370   0.91260   0.12050   Biso      1.000     O          -0.568091           
         O10       1.0000    0.88210   0.87280   0.04640   Biso      1.000     O          -0.599883           
         O11       1.0000    0.38080   0.85270   0.04380   Biso      1.000     O          -0.581011           
         O12       1.0000    0.90360   0.10580   0.89220   Biso      1.000     O          -0.575985           
         O13       1.0000    0.58370   0.41260   0.37950   Biso      1.000     O          -0.568091           
         O14       1.0000    0.11790   0.62720   0.54640   Biso      1.000     O          -0.599883           
         O15       1.0000    0.61920   0.14730   0.95620   Biso      1.000     O          -0.581011           
         O16       1.0000    0.09640   0.89420   0.10780   Biso      1.000     O          -0.575984 