
##########################################################################
#               Crystallographic Information Format file
#               Produced by PyCifRW module
#
#  This is a CIF file.  CIF has been adopted by the International
#  Union of Crystallography as the standard for data archiving and
#  transmission.
#
#  For information on this file format, follow the CIF links at
#  http://www.iucr.org
##########################################################################

data_image0

_cell_length_a                          10.66
_cell_length_b                          12.4897
_cell_length_c                          12.4897
_cell_angle_alpha                       92.1281
_cell_angle_beta                        92.8574
_cell_angle_gamma                       92.8574
_symmetry_space_group_name_H-M          'P 1'
_symmetry_int_tables_number             1
loop_
  _symmetry_equiv_pos_as_xyz
         'x, y, z' 
loop_
  _atom_site_label
  _atom_site_occupancy
  _atom_site_fract_x
  _atom_site_fract_y
  _atom_site_fract_z
  _atom_site_thermal_displace_type
  _atom_site_B_iso_or_equiv
  _atom_site_type_symbol
  _atom_site_charge
         C1        1.0000    0.78570   0.15430   0.30730   Biso      1.000     C          -0.160363           
         C2        1.0000    0.77780   0.89110   0.51530   Biso      1.000     C          -0.13388599999999998          
         C3        1.0000    0.53870   0.92100   0.23400   Biso      1.000     C          0.584234  
         C4        1.0000    0.33180   0.50470   0.17590   Biso      1.000     C          0.045194  
         C5        1.0000    0.21430   0.84570   0.69270   Biso      1.000     C          -0.160363           
         C6        1.0000    0.57440   0.90940   0.43200   Biso      1.000     C          -0.117724           
         C7        1.0000    0.42560   0.09060   0.56800   Biso      1.000     C          -0.117724           
         C8        1.0000    0.75170   0.19510   0.40570   Biso      1.000     C          0.069863  
         C9        1.0000    0.14110   0.40990   0.24870   Biso      1.000     C          -0.13960799999999998          
         C10       1.0000    0.93370   0.68170   0.73990   Biso      1.000     C          -0.079502           
         C11       1.0000    0.27780   0.51530   0.89110   Biso      1.000     C          -0.13388599999999998          
         C12       1.0000    0.46810   0.68500   0.12140   Biso      1.000     C          0.008277  
         C13       1.0000    0.35890   0.75130   0.59010   Biso      1.000     C          -0.13960799999999998          
         C14       1.0000    0.34780   0.09710   0.47530   Biso      1.000     C          -0.074932           
         C15       1.0000    0.71970   0.39410   0.82970   Biso      1.000     C          0.00978   
         C16       1.0000    0.56630   0.26010   0.31830   Biso      1.000     C          -0.079502           
         C17       1.0000    0.95830   0.16040   0.50080   Biso      1.000     C          -0.166009           
         C18       1.0000    0.28030   0.60590   0.17030   Biso      1.000     C          0.009779000000000001          
         C19       1.0000    0.15220   0.52470   0.90290   Biso      1.000     C          -0.074929           
         C20       1.0000    0.83100   0.88550   0.41510   Biso      1.000     C          0.064452  
         C21       1.0000    0.22220   0.10890   0.48470   Biso      1.000     C          -0.133883           
         C22       1.0000    0.65220   0.90290   0.52470   Biso      1.000     C          -0.07493  
         C23       1.0000    0.25170   0.40570   0.19510   Biso      1.000     C          0.069865  
         C24       1.0000    0.03190   0.87860   0.31500   Biso      1.000     C          0.008277  
         C25       1.0000    0.04170   0.83960   0.49920   Biso      1.000     C          -0.166009           
         C26       1.0000    0.66900   0.58490   0.11450   Biso      1.000     C          0.064452  
         C27       1.0000    0.12440   0.33010   0.90770   Biso      1.000     C          -0.018047999999999998         
         C28       1.0000    0.96130   0.76600   0.07900   Biso      1.000     C          0.584234  
         C29       1.0000    0.71430   0.69270   0.84570   Biso      1.000     C          -0.160363           
         C30       1.0000    0.71340   0.16640   0.21380   Biso      1.000     C          -0.016362           
         C31       1.0000    0.85890   0.59010   0.75130   Biso      1.000     C          -0.139603           
         C32       1.0000    0.25380   0.32300   0.89380   Biso      1.000     C          -0.15529  
         C33       1.0000    0.74720   0.89260   0.87700   Biso      1.000     C          0.618104  
         C34       1.0000    0.45830   0.50080   0.16040   Biso      1.000     C          -0.16600299999999998          
         C35       1.0000    0.24620   0.10620   0.67700   Biso      1.000     C          -0.155289           
         C36       1.0000    0.75280   0.12300   0.10740   Biso      1.000     C          0.618104  
         C37       1.0000    0.16820   0.82410   0.49530   Biso      1.000     C          0.045199  
         C38       1.0000    0.96810   0.12140   0.68500   Biso      1.000     C          0.008277  
         C39       1.0000    0.37560   0.09230   0.66990   Biso      1.000     C          -0.018050999999999998         
         C40       1.0000    0.39880   0.78060   0.77880   Biso      1.000     C          -0.10918800000000001          
         C41       1.0000    0.66820   0.49530   0.82410   Biso      1.000     C          0.045193000000000004          
         C42       1.0000    0.72220   0.48470   0.10890   Biso      1.000     C          -0.13388599999999998          
         C43       1.0000    0.78660   0.78620   0.83360   Biso      1.000     C          -0.016362           
         C44       1.0000    0.96930   0.86880   0.40940   Biso      1.000     C          0.047356999999999996          
         C45       1.0000    0.21340   0.21380   0.16640   Biso      1.000     C          -0.016364           
         C46       1.0000    0.10120   0.22120   0.21940   Biso      1.000     C          -0.10918699999999999          
         C47       1.0000    0.64110   0.24870   0.40990   Biso      1.000     C          -0.1396   
         C48       1.0000    0.07440   0.43200   0.90940   Biso      1.000     C          -0.117727           
         C49       1.0000    0.75380   0.89380   0.32300   Biso      1.000     C          -0.15529  
         C50       1.0000    0.53190   0.31500   0.87860   Biso      1.000     C          0.008277  
         C51       1.0000    0.03870   0.23400   0.92100   Biso      1.000     C          0.584234  
         C52       1.0000    0.33100   0.41510   0.88550   Biso      1.000     C          0.064451  
         C53       1.0000    0.74620   0.67700   0.10620   Biso      1.000     C          -0.15529  
         C54       1.0000    0.84780   0.47530   0.09710   Biso      1.000     C          -0.074929           
         C55       1.0000    0.06630   0.31830   0.26010   Biso      1.000     C          -0.079492           
         C56       1.0000    0.03070   0.13120   0.59060   Biso      1.000     C          0.047356999999999996          
         C57       1.0000    0.54170   0.49920   0.83960   Biso      1.000     C          -0.16600299999999998          
         C58       1.0000    0.46930   0.40940   0.86880   Biso      1.000     C          0.047356  
         C59       1.0000    0.53070   0.59060   0.13120   Biso      1.000     C          0.047356  
         C60       1.0000    0.21970   0.82970   0.39410   Biso      1.000     C          0.009778  
         C61       1.0000    0.28570   0.30730   0.15430   Biso      1.000     C          -0.16036  
         C62       1.0000    0.16900   0.11450   0.58490   Biso      1.000     C          0.06445   
         C63       1.0000    0.78030   0.17030   0.60590   Biso      1.000     C          0.009778  
         C64       1.0000    0.46130   0.07900   0.76600   Biso      1.000     C          0.584234  
         C65       1.0000    0.24720   0.87700   0.89260   Biso      1.000     C          0.618104  
         C66       1.0000    0.60120   0.21940   0.22120   Biso      1.000     C          -0.10918199999999999          
         C67       1.0000    0.89880   0.77880   0.78060   Biso      1.000     C          -0.10918199999999999          
         C68       1.0000    0.28660   0.83360   0.78620   Biso      1.000     C          -0.016361           
         C69       1.0000    0.74830   0.59430   0.80490   Biso      1.000     C          0.069866  
         C70       1.0000    0.83180   0.17590   0.50470   Biso      1.000     C          0.045199  
         C71       1.0000    0.25280   0.10740   0.12300   Biso      1.000     C          0.618105  
         C72       1.0000    0.87560   0.66990   0.09230   Biso      1.000     C          -0.018049000000000003         
         C73       1.0000    0.92560   0.56800   0.09060   Biso      1.000     C          -0.117727           
         C74       1.0000    0.24830   0.80490   0.59430   Biso      1.000     C          0.069866  
         C75       1.0000    0.62440   0.90770   0.33010   Biso      1.000     C          -0.018050999999999998         
         C76       1.0000    0.43370   0.73990   0.68170   Biso      1.000     C          -0.079492           
         Cd1       1.0000    0.75000   0.14052   0.85948   Biso      1.000     Cd          0.909487  
         Cd2       1.0000    0.50000   0.00000   0.00000   Biso      1.000     Cd          1.087428  
         Cd3       1.0000    0.25000   0.85948   0.14052   Biso      1.000     Cd          0.909487  
         Cd4       1.0000    0.00000   0.00000   0.00000   Biso      1.000     Cd          1.087429  
         H1        1.0000    0.98820   0.90180   0.25460   Biso      1.000     H          0.10423199999999999           
         H2        1.0000    0.32950   0.57710   0.88690   Biso      1.000     H          0.10711300000000001           
         H3        1.0000    0.88130   0.40790   0.09350   Biso      1.000     H          0.11590299999999999           
         H4        1.0000    0.85940   0.11790   0.30390   Biso      1.000     H          0.11420699999999999           
         H5        1.0000    0.51180   0.74540   0.09820   Biso      1.000     H          0.10423199999999999           
         H6        1.0000    0.98830   0.43790   0.91490   Biso      1.000     H          0.10462   
         H7        1.0000    0.64060   0.69610   0.88210   Biso      1.000     H          0.11420699999999999           
         H8        1.0000    0.95000   0.84020   0.77280   Biso      1.000     H          0.10793   
         H9        1.0000    0.00820   0.67780   0.70460   Biso      1.000     H          0.10774   
         H10       1.0000    0.45000   0.77280   0.84020   Biso      1.000     H          0.107931  
         H11       1.0000    0.49700   0.43640   0.16960   Biso      1.000     H          0.117802  
         H12       1.0000    0.30360   0.81440   0.38760   Biso      1.000     H          0.096123  
         H13       1.0000    0.14060   0.88210   0.69610   Biso      1.000     H          0.11420699999999999           
         H14       1.0000    0.67050   0.42290   0.11310   Biso      1.000     H          0.10711300000000001           
         H15       1.0000    0.48820   0.25460   0.90180   Biso      1.000     H          0.10423199999999999           
         H16       1.0000    0.50820   0.70460   0.67780   Biso      1.000     H          0.10773900000000002           
         H17       1.0000    0.01180   0.09820   0.74540   Biso      1.000     H          0.10423199999999999           
         H18       1.0000    0.99700   0.16960   0.43640   Biso      1.000     H          0.117802  
         H19       1.0000    0.01170   0.56210   0.08510   Biso      1.000     H          0.10462   
         H20       1.0000    0.61870   0.90650   0.59210   Biso      1.000     H          0.11590299999999999           
         H21       1.0000    0.55000   0.22720   0.15980   Biso      1.000     H          0.10793   
         H22       1.0000    0.69640   0.18560   0.61240   Biso      1.000     H          0.096123  
         H23       1.0000    0.11720   0.47520   0.27740   Biso      1.000     H          0.113194  
         H24       1.0000    0.50300   0.56360   0.83040   Biso      1.000     H          0.117802  
         H25       1.0000    0.71190   0.74390   0.10970   Biso      1.000     H          0.12772999999999998           
         H26       1.0000    0.28810   0.25610   0.89030   Biso      1.000     H          0.12772999999999998           
         H27       1.0000    0.51170   0.08510   0.56210   Biso      1.000     H          0.10462   
         H28       1.0000    0.49180   0.29540   0.32220   Biso      1.000     H          0.10774   
         H29       1.0000    0.82950   0.88690   0.57710   Biso      1.000     H          0.10711300000000001           
         H30       1.0000    0.21190   0.10970   0.74390   Biso      1.000     H          0.12772999999999998           
         H31       1.0000    0.11870   0.59210   0.90650   Biso      1.000     H          0.11590299999999999           
         H32       1.0000    0.17050   0.11310   0.42290   Biso      1.000     H          0.10711300000000001           
         H33       1.0000    0.80360   0.38760   0.81440   Biso      1.000     H          0.096123  
         H34       1.0000    0.05000   0.15980   0.22720   Biso      1.000     H          0.10793   
         H35       1.0000    0.78810   0.89030   0.25610   Biso      1.000     H          0.12773099999999998           
         H36       1.0000    0.48830   0.91490   0.43790   Biso      1.000     H          0.10462   
         H37       1.0000    0.19640   0.61240   0.18560   Biso      1.000     H          0.096122  
         H38       1.0000    0.00300   0.83040   0.56360   Biso      1.000     H          0.117802  
         H39       1.0000    0.35940   0.30390   0.11790   Biso      1.000     H          0.11420699999999999           
         H40       1.0000    0.88280   0.52480   0.72260   Biso      1.000     H          0.113194  
         H41       1.0000    0.61720   0.27740   0.47520   Biso      1.000     H          0.113194  
         H42       1.0000    0.99180   0.32220   0.29540   Biso      1.000     H          0.10774   
         H43       1.0000    0.38130   0.09350   0.40790   Biso      1.000     H          0.11590299999999999           
         H44       1.0000    0.38280   0.72260   0.52480   Biso      1.000     H          0.113194  
         N1        1.0000    0.65300   0.30770   0.85590   Biso      1.000     N          -0.19755999999999999          
         N2        1.0000    0.84700   0.14410   0.69230   Biso      1.000     N          -0.19755999999999999          
         N3        1.0000    0.15300   0.85590   0.30770   Biso      1.000     N          -0.19755999999999999          
         N4        1.0000    0.34700   0.69230   0.14410   Biso      1.000     N          -0.19755999999999999          
         O1        1.0000    0.41070   0.06870   0.85490   Biso      1.000     O          -0.562271           
         O2        1.0000    0.32610   0.87220   0.97240   Biso      1.000     O          -0.60549  
         O3        1.0000    0.13970   0.91190   0.89490   Biso      1.000     O          -0.5514560000000001           
         O4        1.0000    0.17390   0.02760   0.12780   Biso      1.000     O          -0.60549  
         O5        1.0000    0.57730   0.08110   0.75350   Biso      1.000     O          -0.574641           
         O6        1.0000    0.63970   0.89490   0.91190   Biso      1.000     O          -0.551455           
         O7        1.0000    0.36030   0.10510   0.08810   Biso      1.000     O          -0.5514560000000001           
         O8        1.0000    0.82610   0.97240   0.87220   Biso      1.000     O          -0.60549  
         O9        1.0000    0.91070   0.85490   0.06870   Biso      1.000     O          -0.562271           
         O10       1.0000    0.07730   0.75350   0.08110   Biso      1.000     O          -0.574641           
         O11       1.0000    0.42270   0.91890   0.24650   Biso      1.000     O          -0.574641           
         O12       1.0000    0.86030   0.08810   0.10510   Biso      1.000     O          -0.551455           
         O13       1.0000    0.58930   0.93130   0.14510   Biso      1.000     O          -0.562271           
         O14       1.0000    0.67390   0.12780   0.02760   Biso      1.000     O          -0.60549  
         O15       1.0000    0.92270   0.24650   0.91890   Biso      1.000     O          -0.574641           
         O16       1.0000    0.08930   0.14510   0.93130   Biso      1.000     O          -0.562271 