
##########################################################################
#               Crystallographic Information Format file
#               Produced by PyCifRW module
#
#  This is a CIF file.  CIF has been adopted by the International
#  Union of Crystallography as the standard for data archiving and
#  transmission.
#
#  For information on this file format, follow the CIF links at
#  http://www.iucr.org
##########################################################################

data_image0

_cell_length_a                          8.8621
_cell_length_b                          13.9812
_cell_length_c                          16.3993
_cell_angle_alpha                       66.3522
_cell_angle_beta                        74.3241
_cell_angle_gamma                       71.5228
_symmetry_space_group_name_H-M          'P 1'
_symmetry_int_tables_number             1
loop_
  _symmetry_equiv_pos_as_xyz
         'x, y, z' 
loop_
  _atom_site_label
  _atom_site_occupancy
  _atom_site_fract_x
  _atom_site_fract_y
  _atom_site_fract_z
  _atom_site_thermal_displace_type
  _atom_site_B_iso_or_equiv
  _atom_site_type_symbol
  _atom_site_charge
         C1        1.0000    0.29711   0.82856   0.03862   Biso      1.000     C          0.050433  
         C2        1.0000    0.48255   0.97500   0.16010   Biso      1.000     C          -0.518612           
         C3        1.0000    0.28657   0.72504   0.43222   Biso      1.000     C          -0.04156  
         C4        1.0000    0.49432   0.17796   0.89240   Biso      1.000     C          -0.132878           
         C5        1.0000    0.83571   0.32856   0.53862   Biso      1.000     C          0.050328  
         C6        1.0000    0.56468   0.32204   0.60760   Biso      1.000     C          -0.13314  
         C7        1.0000    0.57743   0.07924   0.88410   Biso      1.000     C          0.170385  
         C8        1.0000    0.68959   0.52666   0.81856   Biso      1.000     C          0.050758  
         C9        1.0000    0.88702   0.51726   0.67930   Biso      1.000     C          0.565148  
         C10       1.0000    0.95244   0.18442   0.18870   Biso      1.000     C          -0.150063           
         C11       1.0000    0.33208   0.52974   0.41930   Biso      1.000     C          -0.015322           
         C12       1.0000    0.54868   0.73844   0.73780   Biso      1.000     C          0.167171  
         C13       1.0000    0.05429   0.92182   0.77080   Biso      1.000     C          -0.040141           
         C14       1.0000    0.74396   0.16978   0.55450   Biso      1.000     C          0.579851  
         C15       1.0000    0.28112   0.97026   0.08070   Biso      1.000     C          -0.017686           
         C16       1.0000    0.04756   0.81558   0.81130   Biso      1.000     C          -0.150059           
         C17       1.0000    0.94571   0.07818   0.22920   Biso      1.000     C          -0.040138           
         C18       1.0000    0.02492   0.76156   0.76220   Biso      1.000     C          0.168955  
         C19       1.0000    0.50033   0.31974   0.17340   Biso      1.000     C          -0.009687           
         C20       1.0000    0.38235   0.47500   0.66010   Biso      1.000     C          -0.519984           
         C21       1.0000    0.45923   0.57924   0.38410   Biso      1.000     C          0.169979  
         C22       1.0000    0.25309   0.42182   0.27080   Biso      1.000     C          -0.040529           
         C23       1.0000    0.11298   0.48274   0.32070   Biso      1.000     C          0.565148  
         C24       1.0000    0.32556   0.31558   0.31130   Biso      1.000     C          -0.148161           
         C25       1.0000    0.02400   0.64400   0.80280   Biso      1.000     C          -0.517904           
         C26       1.0000    0.47080   0.85600   0.69720   Biso      1.000     C          -0.517264           
         C27       1.0000    0.45132   0.26156   0.26220   Biso      1.000     C          0.167174  
         C28       1.0000    0.53176   0.66978   0.05450   Biso      1.000     C          0.578503  
         C29       1.0000    0.16429   0.67144   0.46138   Biso      1.000     C          0.050328  
         C30       1.0000    0.25604   0.83022   0.44550   Biso      1.000     C          0.579852  
         C31       1.0000    0.50568   0.82204   0.10760   Biso      1.000     C          -0.132878           
         C32       1.0000    0.91642   0.01726   0.17930   Biso      1.000     C          0.565744  
         C33       1.0000    0.97508   0.23844   0.23780   Biso      1.000     C          0.168955  
         C34       1.0000    0.74691   0.57818   0.72920   Biso      1.000     C          -0.040527           
         C35       1.0000    0.97600   0.35600   0.19720   Biso      1.000     C          -0.517904           
         C36       1.0000    0.00653   0.81974   0.67340   Biso      1.000     C          -0.009199           
         C37       1.0000    0.44383   0.77496   0.06778   Biso      1.000     C          -0.040904           
         C38       1.0000    0.70289   0.17144   0.96138   Biso      1.000     C          0.050433  
         C39       1.0000    0.49967   0.68026   0.82660   Biso      1.000     C          -0.009683           
         C40       1.0000    0.61765   0.52500   0.33990   Biso      1.000     C          -0.519984           
         C41       1.0000    0.31041   0.47334   0.18144   Biso      1.000     C          0.050762  
         C42       1.0000    0.46824   0.33022   0.94550   Biso      1.000     C          0.578503  
         C43       1.0000    0.96519   0.02666   0.31856   Biso      1.000     C          0.050721  
         C44       1.0000    0.42257   0.92076   0.11590   Biso      1.000     C          0.170386  
         C45       1.0000    0.55617   0.22504   0.93222   Biso      1.000     C          -0.040904           
         C46       1.0000    0.71888   0.02974   0.91930   Biso      1.000     C          -0.017684           
         C47       1.0000    0.54077   0.42076   0.61590   Biso      1.000     C          0.169978  
         C48       1.0000    0.03481   0.97334   0.68144   Biso      1.000     C          0.050721  
         C49       1.0000    0.52920   0.14400   0.30280   Biso      1.000     C          -0.517264           
         C50       1.0000    0.71343   0.27496   0.56778   Biso      1.000     C          -0.041558           
         C51       1.0000    0.43532   0.67796   0.39240   Biso      1.000     C          -0.133138           
         C52       1.0000    0.67444   0.68442   0.68870   Biso      1.000     C          -0.14816  
         C53       1.0000    0.66792   0.47026   0.58070   Biso      1.000     C          -0.015319           
         C54       1.0000    0.51745   0.02500   0.83990   Biso      1.000     C          -0.518612           
         C55       1.0000    0.08358   0.98274   0.82070   Biso      1.000     C          0.565745  
         C56       1.0000    0.99347   0.18026   0.32660   Biso      1.000     C          -0.009199           
         Cu1       1.0000    0.00000   0.00000   0.00000   Biso      1.000     Cu          0.751623  
         Cu2       1.0000    0.50000   0.50000   0.00000   Biso      1.000     Cu          0.742445  
         Cu3       1.0000    0.00000   0.00000   0.50000   Biso      1.000     Cu          0.744034  
         Cu4       1.0000    0.00000   0.50000   0.50000   Biso      1.000     Cu          0.748188  
         H1        1.0000    0.57130   0.95030   0.85690   Biso      1.000     H          0.164201  
         H2        1.0000    0.11790   0.60400   0.83080   Biso      1.000     H          0.183145  
         H3        1.0000    0.92870   0.63450   0.84710   Biso      1.000     H          0.178819  
         H4        1.0000    0.29470   0.46780   0.64080   Biso      1.000     H          0.17522   
         H5        1.0000    0.59670   0.96780   0.14080   Biso      1.000     H          0.174432  
         H6        1.0000    0.03790   0.04550   0.65390   Biso      1.000     H          0.11015   
         H7        1.0000    0.70530   0.53220   0.35920   Biso      1.000     H          0.17522   
         H8        1.0000    0.05830   0.77990   0.87170   Biso      1.000     H          0.138491  
         H9        1.0000    0.58540   0.28500   0.13980   Biso      1.000     H          0.103258  
         H10       1.0000    0.34890   0.46130   0.41770   Biso      1.000     H          0.102258  
         H11       1.0000    0.60030   0.11870   0.25610   Biso      1.000     H          0.168105  
         H12       1.0000    0.29010   0.27990   0.37170   Biso      1.000     H          0.138367  
         H13       1.0000    0.93700   0.29600   0.51420   Biso      1.000     H          0.108998  
         H14       1.0000    0.44730   0.10400   0.33080   Biso      1.000     H          0.183157  
         H15       1.0000    0.25280   0.79600   0.01420   Biso      1.000     H          0.108367  
         H16       1.0000    0.96210   0.95450   0.34610   Biso      1.000     H          0.11015   
         H17       1.0000    0.98980   0.78500   0.63980   Biso      1.000     H          0.103039  
         H18       1.0000    0.41460   0.71500   0.86020   Biso      1.000     H          0.103257  
         H19       1.0000    0.88210   0.39600   0.16920   Biso      1.000     H          0.183144  
         H20       1.0000    0.37850   0.54970   0.64310   Biso      1.000     H          0.163812  
         H21       1.0000    0.58970   0.13450   0.34710   Biso      1.000     H          0.178337  
         H22       1.0000    0.62150   0.45030   0.35690   Biso      1.000     H          0.163812  
         H23       1.0000    0.62680   0.55810   0.27550   Biso      1.000     H          0.186123  
         H24       1.0000    0.51920   0.71280   0.37120   Biso      1.000     H          0.141548  
         H25       1.0000    0.70990   0.72010   0.62830   Biso      1.000     H          0.138368  
         H26       1.0000    0.02490   0.61870   0.75610   Biso      1.000     H          0.167685  
         H27       1.0000    0.65110   0.53870   0.58230   Biso      1.000     H          0.102258  
         H28       1.0000    0.22790   0.03870   0.08230   Biso      1.000     H          0.102718  
         H29       1.0000    0.42870   0.04970   0.14310   Biso      1.000     H          0.164201  
         H30       1.0000    0.39680   0.21280   0.87120   Biso      1.000     H          0.141289  
         H31       1.0000    0.48080   0.28720   0.62880   Biso      1.000     H          0.141548  
         H32       1.0000    0.53960   0.05810   0.77550   Biso      1.000     H          0.185187  
         H33       1.0000    0.74720   0.20400   0.98580   Biso      1.000     H          0.108367  
         H34       1.0000    0.73730   0.45450   0.84610   Biso      1.000     H          0.110028  
         H35       1.0000    0.37320   0.44190   0.72450   Biso      1.000     H          0.186122  
         H36       1.0000    0.97510   0.38130   0.24390   Biso      1.000     H          0.167685  
         H37       1.0000    0.77210   0.96130   0.91770   Biso      1.000     H          0.102717  
         H38       1.0000    0.94170   0.22010   0.12830   Biso      1.000     H          0.138491  
         H39       1.0000    0.26270   0.54550   0.15390   Biso      1.000     H          0.110028  
         H40       1.0000    0.55270   0.89600   0.66920   Biso      1.000     H          0.183157  
         H41       1.0000    0.41030   0.86550   0.65290   Biso      1.000     H          0.178337  
         H42       1.0000    0.60320   0.78720   0.12880   Biso      1.000     H          0.141289  
         H43       1.0000    0.06300   0.70400   0.48580   Biso      1.000     H          0.108998  
         H44       1.0000    0.07130   0.36550   0.15290   Biso      1.000     H          0.178819  
         H45       1.0000    0.39970   0.88130   0.74390   Biso      1.000     H          0.168105  
         H46       1.0000    0.01020   0.21500   0.36020   Biso      1.000     H          0.103039  
         H47       1.0000    0.46040   0.94190   0.22450   Biso      1.000     H          0.185187  
         H48       1.0000    0.40330   0.03220   0.85920   Biso      1.000     H          0.174432  
         N1        1.0000    0.81494   0.42530   0.54402   Biso      1.000     N          -0.197822           
         N2        1.0000    0.98847   0.07703   0.36703   Biso      1.000     N          -0.200287           
         N3        1.0000    0.21574   0.92530   0.04402   Biso      1.000     N          -0.197041           
         N4        1.0000    0.43253   0.42297   0.13297   Biso      1.000     N          -0.198883           
         N5        1.0000    0.18506   0.57470   0.45598   Biso      1.000     N          -0.197822           
         N6        1.0000    0.56747   0.57703   0.86703   Biso      1.000     N          -0.198883           
         N7        1.0000    0.01153   0.92297   0.63297   Biso      1.000     N          -0.200287           
         N8        1.0000    0.78426   0.07470   0.95598   Biso      1.000     N          -0.197042           
         O1        1.0000    0.54521   0.36490   0.97788   Biso      1.000     O          -0.572445           
         O2        1.0000    0.11201   0.86490   0.47788   Biso      1.000     O          -0.572923           
         O3        1.0000    0.88799   0.13510   0.52212   Biso      1.000     O          -0.572923           
         O4        1.0000    0.92835   0.06414   0.09496   Biso      1.000     O          -0.582001           
         O5        1.0000    0.91255   0.56414   0.59496   Biso      1.000     O          -0.581337           
         O6        1.0000    0.36700   0.87560   0.42440   Biso      1.000     O          -0.568594           
         O7        1.0000    0.88458   0.92891   0.22273   Biso      1.000     O          -0.543084           
         O8        1.0000    0.07165   0.93586   0.90504   Biso      1.000     O          -0.582001           
         O9        1.0000    0.45479   0.63510   0.02212   Biso      1.000     O          -0.572445           
         O10       1.0000    0.08745   0.43586   0.40504   Biso      1.000     O          -0.581337           
         O11       1.0000    0.33300   0.37560   0.92440   Biso      1.000     O          -0.568406           
         O12       1.0000    0.63300   0.12440   0.57560   Biso      1.000     O          -0.568594           
         O13       1.0000    0.96378   0.42891   0.72273   Biso      1.000     O          -0.542012           
         O14       1.0000    0.03622   0.57109   0.27727   Biso      1.000     O          -0.542013           
         O15       1.0000    0.11542   0.07109   0.77727   Biso      1.000     O          -0.543084           
         O16       1.0000    0.66700   0.62440   0.07560   Biso      1.000     O          -0.568406 