
##########################################################################
#               Crystallographic Information Format file
#               Produced by PyCifRW module
#
#  This is a CIF file.  CIF has been adopted by the International
#  Union of Crystallography as the standard for data archiving and
#  transmission.
#
#  For information on this file format, follow the CIF links at
#  http://www.iucr.org
##########################################################################

data_image0

_cell_length_a                          16.52
_cell_length_b                          34.6
_cell_length_c                          9.361
_cell_angle_alpha                       90
_cell_angle_beta                        112.4
_cell_angle_gamma                       90
_symmetry_space_group_name_H-M          'P 1'
_symmetry_int_tables_number             1
loop_
  _symmetry_equiv_pos_as_xyz
         'x, y, z' 
loop_
  _atom_site_label
  _atom_site_occupancy
  _atom_site_fract_x
  _atom_site_fract_y
  _atom_site_fract_z
  _atom_site_thermal_displace_type
  _atom_site_B_iso_or_equiv
  _atom_site_type_symbol
  _atom_site_charge
         C1        1.0000    0.09600   0.11200   0.19200   Biso      1.000     C          -0.059562           
         C2        1.0000    0.25600   0.06900   0.36900   Biso      1.000     C          0.123609  
         C3        1.0000    0.30000   0.09600   0.33300   Biso      1.000     C          -0.020349           
         C4        1.0000    0.37500   0.11800   0.43200   Biso      1.000     C          -0.202209           
         C5        1.0000    0.35100   0.07900   0.62300   Biso      1.000     C          0.207181  
         C6        1.0000    0.27600   0.05900   0.54200   Biso      1.000     C          -0.234271           
         C7        1.0000    0.86300   0.12400   0.79600   Biso      1.000     C          0.099575  
         C8        1.0000    0.81600   0.14900   0.83100   Biso      1.000     C          -0.039607           
         C9        1.0000    0.77900   0.18400   0.76500   Biso      1.000     C          -0.197883           
         C10       1.0000    0.84200   0.16900   0.58500   Biso      1.000     C          0.000599  
         C11       1.0000    0.86900   0.13200   0.66300   Biso      1.000     C          -0.065273           
         C12       1.0000    0.20000   0.59600   0.16700   Biso      1.000     C          -0.012711           
         C13       1.0000    0.24400   0.56900   0.13100   Biso      1.000     C          0.122173  
         C14       1.0000    0.25500   0.48300   0.12200   Biso      1.000     C          -0.080051           
         C15       1.0000    0.27800   0.44900   0.14800   Biso      1.000     C          -0.145212           
         C16       1.0000    0.67300   0.51000   0.27100   Biso      1.000     C          0.213346  
         C17       1.0000    0.67200   0.54700   0.27700   Biso      1.000     C          -0.036321           
         C18       1.0000    0.60500   0.57100   0.17900   Biso      1.000     C          0.151834  
         C19       1.0000    0.24500   0.98300   0.37800   Biso      1.000     C          -0.080501           
         C20       1.0000    0.59600   0.61200   0.19200   Biso      1.000     C          -0.052695           
         C21       1.0000    0.22200   0.94900   0.35200   Biso      1.000     C          -0.146321           
         C22       1.0000    0.90600   0.08400   0.84900   Biso      1.000     C          -0.053722           
         C23       1.0000    0.85100   0.42100   0.12300   Biso      1.000     C          0.21131   
         C24       1.0000    0.77600   0.44100   0.04200   Biso      1.000     C          -0.236048           
         C25       1.0000    0.36300   0.37600   0.29600   Biso      1.000     C          0.100464  
         C26       1.0000    0.31600   0.35100   0.33100   Biso      1.000     C          -0.035649           
         C27       1.0000    0.27900   0.31600   0.26500   Biso      1.000     C          -0.200989           
         C28       1.0000    0.34200   0.33100   0.08500   Biso      1.000     C          0.01235   
         C29       1.0000    0.36900   0.36800   0.16300   Biso      1.000     C          -0.072674           
         C30       1.0000    0.68400   0.64900   0.66900   Biso      1.000     C          -0.036285           
         C31       1.0000    0.63700   0.62400   0.70400   Biso      1.000     C          0.100453  
         C32       1.0000    0.22400   0.55900   0.95800   Biso      1.000     C          -0.236202           
         C33       1.0000    0.14900   0.57900   0.87700   Biso      1.000     C          0.211296  
         C34       1.0000    0.17300   0.01000   0.27100   Biso      1.000     C          0.213261  
         C35       1.0000    0.17200   0.04700   0.27700   Biso      1.000     C          -0.035464           
         C36       1.0000    0.10500   0.07100   0.17900   Biso      1.000     C          0.152352  
         C37       1.0000    0.12500   0.61800   0.06800   Biso      1.000     C          -0.20967  
         C38       1.0000    0.02000   0.12400   0.06900   Biso      1.000     C          -0.098425           
         C39       1.0000    0.97900   0.08700   0.00600   Biso      1.000     C          0.163932  
         C40       1.0000    0.13900   0.94800   0.21500   Biso      1.000     C          0.237519  
         C41       1.0000    0.52000   0.62400   0.06900   Biso      1.000     C          -0.103816           
         C42       1.0000    0.47900   0.58700   0.00600   Biso      1.000     C          0.164486  
         C43       1.0000    0.40600   0.58400   0.84900   Biso      1.000     C          -0.054233           
         C44       1.0000    0.02100   0.08700   0.49400   Biso      1.000     C          0.165122  
         C45       1.0000    0.09400   0.08400   0.65100   Biso      1.000     C          -0.054423           
         C46       1.0000    0.86100   0.94800   0.28500   Biso      1.000     C          0.238102  
         C47       1.0000    0.77800   0.94900   0.14800   Biso      1.000     C          -0.144653           
         C48       1.0000    0.75500   0.98300   0.12200   Biso      1.000     C          -0.080116           
         C49       1.0000    0.74400   0.06900   0.13100   Biso      1.000     C          0.121792  
         C50       1.0000    0.70000   0.09600   0.16700   Biso      1.000     C          -0.012101           
         C51       1.0000    0.62500   0.11800   0.06800   Biso      1.000     C          -0.208987           
         C52       1.0000    0.64900   0.07900   0.87700   Biso      1.000     C          0.211183  
         C53       1.0000    0.72400   0.05900   0.95800   Biso      1.000     C          -0.234889           
         C54       1.0000    0.13700   0.12400   0.70400   Biso      1.000     C          0.099602  
         C55       1.0000    0.18400   0.14900   0.66900   Biso      1.000     C          -0.036268           
         C56       1.0000    0.22100   0.18400   0.73500   Biso      1.000     C          -0.198396           
         C57       1.0000    0.15800   0.16900   0.91500   Biso      1.000     C          0.015165  
         C58       1.0000    0.13100   0.13200   0.83700   Biso      1.000     C          -0.068478           
         C59       1.0000    0.40400   0.61200   0.30800   Biso      1.000     C          -0.052722           
         C60       1.0000    0.39500   0.57100   0.32100   Biso      1.000     C          0.151816  
         C61       1.0000    0.98000   0.12400   0.43100   Biso      1.000     C          -0.105688           
         C62       1.0000    0.90400   0.11200   0.30800   Biso      1.000     C          -0.052872           
         C63       1.0000    0.89500   0.07100   0.32100   Biso      1.000     C          0.151897  
         C64       1.0000    0.82800   0.04700   0.22300   Biso      1.000     C          -0.035996           
         C65       1.0000    0.63900   0.44800   0.21500   Biso      1.000     C          0.238041  
         C66       1.0000    0.72200   0.44900   0.35200   Biso      1.000     C          -0.145222           
         C67       1.0000    0.74500   0.48300   0.37800   Biso      1.000     C          -0.079991           
         C68       1.0000    0.75600   0.56900   0.36900   Biso      1.000     C          0.122136  
         C69       1.0000    0.80000   0.59600   0.33300   Biso      1.000     C          -0.012713           
         C70       1.0000    0.87500   0.61800   0.43200   Biso      1.000     C          -0.209669           
         C71       1.0000    0.85100   0.57900   0.62300   Biso      1.000     C          0.211282  
         C72       1.0000    0.77600   0.55900   0.54200   Biso      1.000     C          -0.236185           
         C73       1.0000    0.87500   0.38200   0.93200   Biso      1.000     C          -0.209853           
         C74       1.0000    0.36300   0.62400   0.79600   Biso      1.000     C          0.10039   
         C75       1.0000    0.27900   0.68400   0.76500   Biso      1.000     C          -0.200449           
         C76       1.0000    0.34200   0.66900   0.58500   Biso      1.000     C          0.012796  
         C77       1.0000    0.36900   0.63200   0.66300   Biso      1.000     C          -0.072527           
         C78       1.0000    0.36100   0.44800   0.28500   Biso      1.000     C          0.238021  
         C79       1.0000    0.59400   0.58400   0.65100   Biso      1.000     C          -0.054192           
         C80       1.0000    0.52100   0.58700   0.49400   Biso      1.000     C          0.164453  
         C81       1.0000    0.48000   0.62400   0.43100   Biso      1.000     C          -0.103816           
         C82       1.0000    0.82700   0.01000   0.22900   Biso      1.000     C          0.213529  
         C83       1.0000    0.31600   0.64900   0.83100   Biso      1.000     C          -0.036296           
         C84       1.0000    0.80000   0.40400   0.83300   Biso      1.000     C          -0.012607           
         C85       1.0000    0.75600   0.43100   0.86900   Biso      1.000     C          0.122157  
         C86       1.0000    0.74500   0.51700   0.87800   Biso      1.000     C          -0.080126           
         C87       1.0000    0.32700   0.49000   0.72900   Biso      1.000     C          0.213343  
         C88       1.0000    0.32800   0.45300   0.72300   Biso      1.000     C          -0.036368           
         C89       1.0000    0.39500   0.42900   0.82100   Biso      1.000     C          0.151839  
         C90       1.0000    0.40400   0.38800   0.80800   Biso      1.000     C          -0.052888           
         C91       1.0000    0.48000   0.37600   0.93100   Biso      1.000     C          -0.103938           
         C92       1.0000    0.52100   0.41300   0.99400   Biso      1.000     C          0.16446   
         C93       1.0000    0.59400   0.41600   0.15100   Biso      1.000     C          -0.054232           
         C94       1.0000    0.13100   0.86800   0.33700   Biso      1.000     C          -0.073179           
         C95       1.0000    0.36100   0.55200   0.78500   Biso      1.000     C          0.238059  
         C96       1.0000    0.25500   0.51700   0.62200   Biso      1.000     C          -0.080132           
         C97       1.0000    0.24400   0.43100   0.63100   Biso      1.000     C          0.122157  
         C98       1.0000    0.20000   0.40400   0.66700   Biso      1.000     C          -0.012538           
         C99       1.0000    0.12500   0.38200   0.56800   Biso      1.000     C          -0.209904           
         C100      1.0000    0.14900   0.42100   0.37700   Biso      1.000     C          0.211388  
         C101      1.0000    0.22400   0.44100   0.45800   Biso      1.000     C          -0.236119           
         C102      1.0000    0.32800   0.54700   0.22300   Biso      1.000     C          -0.036311           
         C103      1.0000    0.27800   0.55100   0.64800   Biso      1.000     C          -0.144986           
         C104      1.0000    0.68400   0.35100   0.16900   Biso      1.000     C          -0.036381           
         C105      1.0000    0.15800   0.83100   0.41500   Biso      1.000     C          0.012237  
         C106      1.0000    0.18400   0.85100   0.16900   Biso      1.000     C          -0.036039           
         C107      1.0000    0.82700   0.99000   0.72900   Biso      1.000     C          0.213235  
         C108      1.0000    0.82800   0.95300   0.72300   Biso      1.000     C          -0.035843           
         C109      1.0000    0.89500   0.92900   0.82100   Biso      1.000     C          0.151864  
         C110      1.0000    0.90400   0.88800   0.80800   Biso      1.000     C          -0.053982           
         C111      1.0000    0.98000   0.87600   0.93100   Biso      1.000     C          -0.103638           
         C112      1.0000    0.02100   0.91300   0.99400   Biso      1.000     C          0.163675  
         C113      1.0000    0.09400   0.91600   0.15100   Biso      1.000     C          -0.053354           
         C114      1.0000    0.22100   0.81600   0.23500   Biso      1.000     C          -0.200673           
         C115      1.0000    0.86100   0.05200   0.78500   Biso      1.000     C          0.238848  
         C116      1.0000    0.75500   0.01700   0.62200   Biso      1.000     C          -0.080663           
         C117      1.0000    0.74400   0.93100   0.63100   Biso      1.000     C          0.122273  
         C118      1.0000    0.70000   0.90400   0.66700   Biso      1.000     C          -0.011825           
         C119      1.0000    0.62500   0.88200   0.56800   Biso      1.000     C          -0.209766           
         C120      1.0000    0.64900   0.92100   0.37700   Biso      1.000     C          0.21162   
         C121      1.0000    0.72400   0.94100   0.45800   Biso      1.000     C          -0.236247           
         C122      1.0000    0.13700   0.87600   0.20400   Biso      1.000     C          0.10065   
         C123      1.0000    0.77800   0.05100   0.64800   Biso      1.000     C          -0.147839           
         C124      1.0000    0.72100   0.31600   0.23500   Biso      1.000     C          -0.200402           
         C125      1.0000    0.63700   0.37600   0.20400   Biso      1.000     C          0.100464  
         C126      1.0000    0.63100   0.36800   0.33700   Biso      1.000     C          -0.072387           
         C127      1.0000    0.86300   0.87600   0.29600   Biso      1.000     C          0.10015   
         C128      1.0000    0.81600   0.85100   0.33100   Biso      1.000     C          -0.037292           
         C129      1.0000    0.77900   0.81600   0.26500   Biso      1.000     C          -0.200249           
         C130      1.0000    0.84200   0.83100   0.08500   Biso      1.000     C          0.009648  
         C131      1.0000    0.86900   0.86800   0.16300   Biso      1.000     C          -0.071498           
         C132      1.0000    0.63100   0.63200   0.83700   Biso      1.000     C          -0.072646           
         C133      1.0000    0.65800   0.66900   0.91500   Biso      1.000     C          0.013083  
         C134      1.0000    0.72100   0.68400   0.73500   Biso      1.000     C          -0.200312           
         C135      1.0000    0.67300   0.49000   0.77100   Biso      1.000     C          0.213318  
         C136      1.0000    0.67200   0.45300   0.77700   Biso      1.000     C          -0.03631  
         C137      1.0000    0.60500   0.42900   0.67900   Biso      1.000     C          0.151786  
         C138      1.0000    0.59600   0.38800   0.69200   Biso      1.000     C          -0.05271  
         C139      1.0000    0.52000   0.37600   0.56900   Biso      1.000     C          -0.103826           
         C140      1.0000    0.47900   0.41300   0.50600   Biso      1.000     C          0.164392  
         C141      1.0000    0.40600   0.41600   0.34900   Biso      1.000     C          -0.054199           
         C142      1.0000    0.63900   0.55200   0.71500   Biso      1.000     C          0.238038  
         C143      1.0000    0.72200   0.55100   0.85200   Biso      1.000     C          -0.145019           
         C144      1.0000    0.27600   0.94100   0.04200   Biso      1.000     C          -0.235619           
         C145      1.0000    0.65800   0.33100   0.41500   Biso      1.000     C          0.012267  
         C146      1.0000    0.35100   0.92100   0.12300   Biso      1.000     C          0.211941  
         C147      1.0000    0.97900   0.91300   0.50600   Biso      1.000     C          0.164511  
         C148      1.0000    0.17300   0.99000   0.77100   Biso      1.000     C          0.213438  
         C149      1.0000    0.17200   0.95300   0.77700   Biso      1.000     C          -0.036117           
         C150      1.0000    0.10500   0.92900   0.67900   Biso      1.000     C          0.152351  
         C151      1.0000    0.09600   0.88800   0.69200   Biso      1.000     C          -0.052918           
         C152      1.0000    0.02000   0.87600   0.56900   Biso      1.000     C          -0.103257           
         C153      1.0000    0.90600   0.91600   0.34900   Biso      1.000     C          -0.053695           
         C154      1.0000    0.13900   0.05200   0.71500   Biso      1.000     C          0.238301  
         C155      1.0000    0.32700   0.51000   0.22900   Biso      1.000     C          0.213328  
         C156      1.0000    0.22200   0.05100   0.85200   Biso      1.000     C          -0.145131           
         C157      1.0000    0.24500   0.01700   0.87800   Biso      1.000     C          -0.079561           
         C158      1.0000    0.25600   0.93100   0.86900   Biso      1.000     C          0.121981  
         C159      1.0000    0.30000   0.90400   0.83300   Biso      1.000     C          -0.011952           
         C160      1.0000    0.37500   0.88200   0.93200   Biso      1.000     C          -0.209506           
         Cd1       1.0000    0.75000   0.75000   0.00000   Biso      1.000     Cd          0.799523  
         Cd2       1.0000    0.00000   0.35160   0.25000   Biso      1.000     Cd          0.73504   
         Cd3       1.0000    0.25000   0.75000   0.50000   Biso      1.000     Cd          0.799079  
         Cd4       1.0000    0.50000   0.14840   0.75000   Biso      1.000     Cd          0.734397  
         Cd5       1.0000    0.00000   0.64840   0.75000   Biso      1.000     Cd          0.735235  
         Cd6       1.0000    0.50000   0.85160   0.25000   Biso      1.000     Cd          0.735394  
         Cd7       1.0000    0.25000   0.25000   0.00000   Biso      1.000     Cd          0.800559  
         Cd8       1.0000    0.75000   0.25000   0.50000   Biso      1.000     Cd          0.800207  
         N1        1.0000    0.70500   0.69400   0.87000   Biso      1.000     N          -0.21748  
         N2        1.0000    0.10700   0.60700   0.90800   Biso      1.000     N          -0.223355           
         N3        1.0000    0.88700   0.01600   0.83000   Biso      1.000     N          -0.252279           
         N4        1.0000    0.38700   0.48400   0.33000   Biso      1.000     N          -0.252827           
         N5        1.0000    0.97200   0.94500   0.94500   Biso      1.000     N          -0.252631           
         N6        1.0000    0.60700   0.89300   0.40800   Biso      1.000     N          -0.223354           
         N7        1.0000    0.20500   0.80600   0.37000   Biso      1.000     N          -0.217121           
         N8        1.0000    0.38700   0.51600   0.83000   Biso      1.000     N          -0.252858           
         N9        1.0000    0.47200   0.44500   0.94500   Biso      1.000     N          -0.252739           
         N10       1.0000    0.10700   0.39300   0.40800   Biso      1.000     N          -0.223332           
         N11       1.0000    0.70500   0.30600   0.37000   Biso      1.000     N          -0.217305           
         N12       1.0000    0.11300   0.01600   0.67000   Biso      1.000     N          -0.252795           
         N13       1.0000    0.02800   0.94500   0.55500   Biso      1.000     N          -0.253086           
         N14       1.0000    0.39300   0.89300   0.09200   Biso      1.000     N          -0.223544           
         N15       1.0000    0.79500   0.80600   0.13000   Biso      1.000     N          -0.216971           
         N16       1.0000    0.61300   0.51600   0.67000   Biso      1.000     N          -0.252825           
         N17       1.0000    0.47200   0.55500   0.44500   Biso      1.000     N          -0.252819           
         N18       1.0000    0.89300   0.39300   0.09200   Biso      1.000     N          -0.223316           
         N19       1.0000    0.52800   0.44500   0.55500   Biso      1.000     N          -0.252816           
         N20       1.0000    0.11300   0.98400   0.17000   Biso      1.000     N          -0.252475           
         N21       1.0000    0.20500   0.19400   0.87000   Biso      1.000     N          -0.218655           
         N22       1.0000    0.60700   0.10700   0.90800   Biso      1.000     N          -0.222905           
         N23       1.0000    0.97200   0.05500   0.44500   Biso      1.000     N          -0.252348           
         N24       1.0000    0.88700   0.98400   0.33000   Biso      1.000     N          -0.252737           
         N25       1.0000    0.29500   0.30600   0.13000   Biso      1.000     N          -0.217486           
         N26       1.0000    0.89300   0.60700   0.59200   Biso      1.000     N          -0.223356           
         N27       1.0000    0.29500   0.69400   0.63000   Biso      1.000     N          -0.217377           
         N28       1.0000    0.61300   0.48400   0.17000   Biso      1.000     N          -0.25286  
         N29       1.0000    0.79500   0.19400   0.63000   Biso      1.000     N          -0.215804           
         N30       1.0000    0.39300   0.10700   0.59200   Biso      1.000     N          -0.223207           
         N31       1.0000    0.02800   0.05500   0.05500   Biso      1.000     N          -0.254526           
         N32       1.0000    0.52800   0.55500   0.05500   Biso      1.000     N          -0.252831           
         Pd1       1.0000    0.00000   0.00000   0.50000   Biso      1.000     Pd          0.410153  
         Pd2       1.0000    0.00000   0.00000   0.00000   Biso      1.000     Pd          0.409302  
         Pd3       1.0000    0.50000   0.50000   0.00000   Biso      1.000     Pd          0.410066  
         Pd4       1.0000    0.50000   0.50000   0.50000   Biso      1.000     Pd          0.410024 