
##########################################################################
#               Crystallographic Information Format file
#               Produced by PyCifRW module
#
#  This is a CIF file.  CIF has been adopted by the International
#  Union of Crystallography as the standard for data archiving and
#  transmission.
#
#  For information on this file format, follow the CIF links at
#  http://www.iucr.org
##########################################################################

data_image0

_cell_length_a                          13.9129
_cell_length_b                          14.2767
_cell_length_c                          18.623
_cell_angle_alpha                       94.191
_cell_angle_beta                        90
_cell_angle_gamma                       90
_symmetry_space_group_name_H-M          'P 1'
_symmetry_int_tables_number             1
loop_
  _symmetry_equiv_pos_as_xyz
         'x, y, z' 
loop_
  _atom_site_label
  _atom_site_occupancy
  _atom_site_fract_x
  _atom_site_fract_y
  _atom_site_fract_z
  _atom_site_thermal_displace_type
  _atom_site_B_iso_or_equiv
  _atom_site_type_symbol
  _atom_site_charge
         C1        1.0000    0.76120   0.68290   0.14152   Biso      1.000     C          -0.018493           
         C2        1.0000    0.79900   0.73290   0.02343   Biso      1.000     C          0.077902  
         C3        1.0000    0.52440   0.34630   0.65947   Biso      1.000     C          0.642832  
         C4        1.0000    0.72480   0.23540   0.44532   Biso      1.000     C          0.073522  
         C5        1.0000    0.26120   0.81710   0.35848   Biso      1.000     C          -0.018493           
         C6        1.0000    0.79600   0.80170   0.83047   Biso      1.000     C          -0.024316           
         C7        1.0000    0.18360   0.19860   0.09680   Biso      1.000     C          -0.20759299999999997          
         C8        1.0000    0.18570   0.82490   0.66000   Biso      1.000     C          0.011992000000000001          
         C9        1.0000    0.19750   0.87290   0.31259   Biso      1.000     C          0.640306  
         C10       1.0000    0.23880   0.31710   0.85848   Biso      1.000     C          -0.018493           
         C11       1.0000    0.69750   0.62710   0.18741   Biso      1.000     C          0.640306  
         C12       1.0000    0.89540   0.78490   0.12735   Biso      1.000     C          -0.012528000000000001         
         C13       1.0000    0.81430   0.17510   0.34000   Biso      1.000     C          0.011992000000000001          
         C14       1.0000    0.80250   0.12710   0.68741   Biso      1.000     C          0.640306  
         C15       1.0000    0.87740   0.78280   0.05409   Biso      1.000     C          -0.181384           
         C16       1.0000    0.20920   0.82680   0.58778   Biso      1.000     C          -0.161498           
         C17       1.0000    0.97560   0.84630   0.15947   Biso      1.000     C          0.642832  
         C18       1.0000    0.76830   0.23760   0.29802   Biso      1.000     C          -0.131602           
         C19       1.0000    0.25690   0.31670   0.93152   Biso      1.000     C          -0.153257           
         C20       1.0000    0.66270   0.23490   0.67125   Biso      1.000     C          -0.135406           
         C21       1.0000    0.89270   0.11150   0.30919   Biso      1.000     C          0.5682659999999999  
         C22       1.0000    0.77520   0.73540   0.94532   Biso      1.000     C          0.073522  
         C23       1.0000    0.60460   0.28490   0.62735   Biso      1.000     C          -0.012528000000000001         
         C24       1.0000    0.73880   0.18290   0.64152   Biso      1.000     C          -0.018491999999999998         
         C25       1.0000    0.15620   0.12720   0.21296   Biso      1.000     C          0.590549  
         C26       1.0000    0.73170   0.73760   0.79802   Biso      1.000     C          -0.131603           
         C27       1.0000    0.70100   0.23290   0.52343   Biso      1.000     C          0.077901  
         C28       1.0000    0.70920   0.67320   0.91222   Biso      1.000     C          -0.161498           
         C29       1.0000    0.34380   0.62720   0.71296   Biso      1.000     C          0.590549  
         C30       1.0000    0.65620   0.37280   0.28704   Biso      1.000     C          0.590549  
         C31       1.0000    0.31640   0.69860   0.59680   Biso      1.000     C          -0.20759299999999997          
         C32       1.0000    0.29080   0.32680   0.08778   Biso      1.000     C          -0.161498           
         C33       1.0000    0.23170   0.76240   0.70198   Biso      1.000     C          -0.131602           
         C34       1.0000    0.68360   0.30140   0.40320   Biso      1.000     C          -0.20759299999999997          
         C35       1.0000    0.39540   0.71510   0.37265   Biso      1.000     C          -0.012528000000000001         
         C36       1.0000    0.60730   0.61150   0.80919   Biso      1.000     C          0.5682659999999999  
         C37       1.0000    0.37740   0.71720   0.44591   Biso      1.000     C          -0.181383           
         C38       1.0000    0.10460   0.21510   0.87265   Biso      1.000     C          -0.012528000000000001         
         C39       1.0000    0.02440   0.15370   0.84053   Biso      1.000     C          0.642832  
         C40       1.0000    0.47560   0.65370   0.34053   Biso      1.000     C          0.642832  
         C41       1.0000    0.74310   0.68330   0.06848   Biso      1.000     C          -0.153257           
         C42       1.0000    0.79080   0.17320   0.41222   Biso      1.000     C          -0.161498           
         C43       1.0000    0.31430   0.32490   0.16000   Biso      1.000     C          0.011992000000000001          
         C44       1.0000    0.68570   0.67510   0.84000   Biso      1.000     C          0.011993  
         C45       1.0000    0.81640   0.80140   0.90320   Biso      1.000     C          -0.207592           
         C46       1.0000    0.27520   0.76460   0.55468   Biso      1.000     C          0.073521  
         C47       1.0000    0.75690   0.18330   0.56848   Biso      1.000     C          -0.153257           
         C48       1.0000    0.29900   0.76710   0.47657   Biso      1.000     C          0.077901  
         C49       1.0000    0.20400   0.19830   0.16953   Biso      1.000     C          -0.024316           
         C50       1.0000    0.39270   0.38850   0.19081   Biso      1.000     C          0.5682659999999999  
         C51       1.0000    0.16270   0.26510   0.82875   Biso      1.000     C          -0.135406           
         C52       1.0000    0.12260   0.21720   0.94591   Biso      1.000     C          -0.181383           
         C53       1.0000    0.20100   0.26710   0.97657   Biso      1.000     C          0.077901  
         C54       1.0000    0.70400   0.30170   0.33047   Biso      1.000     C          -0.024316           
         C55       1.0000    0.62260   0.28280   0.55409   Biso      1.000     C          -0.181384           
         C56       1.0000    0.24310   0.81670   0.43152   Biso      1.000     C          -0.153257           
         C57       1.0000    0.26830   0.26240   0.20198   Biso      1.000     C          -0.131602           
         C58       1.0000    0.29600   0.69830   0.66953   Biso      1.000     C          -0.024316           
         C59       1.0000    0.30250   0.37290   0.81259   Biso      1.000     C          0.640306  
         C60       1.0000    0.10730   0.88850   0.69081   Biso      1.000     C          0.5682659999999999  
         C61       1.0000    0.22480   0.26460   0.05468   Biso      1.000     C          0.073521  
         C62       1.0000    0.84380   0.87280   0.78704   Biso      1.000     C          0.590549  
         C63       1.0000    0.33730   0.76510   0.32875   Biso      1.000     C          -0.135406           
         C64       1.0000    0.83730   0.73490   0.17125   Biso      1.000     C          -0.135406           
         Ca1       1.0000    0.70195   0.58458   0.37205   Biso      1.000     Ca          1.5544930000000001  
         Ca2       1.0000    0.29805   0.41542   0.62795   Biso      1.000     Ca          1.5544930000000001  
         Ca3       1.0000    0.20195   0.91542   0.12795   Biso      1.000     Ca          1.5544930000000001  
         Ca4       1.0000    0.79805   0.08458   0.87205   Biso      1.000     Ca          1.5544930000000001  
         Cd1       1.0000    0.54301   0.50258   0.22642   Biso      1.000     Cd          0.992332  
         Cd2       1.0000    0.95699   0.00258   0.72642   Biso      1.000     Cd          0.992332  
         Cd3       1.0000    0.45699   0.49742   0.77358   Biso      1.000     Cd          0.992332  
         Cd4       1.0000    0.04301   0.99742   0.27358   Biso      1.000     Cd          0.992332  
         H1        1.0000    0.21970   0.76350   0.75120   Biso      1.000     H          0.131161  
         H2        1.0000    0.78030   0.23650   0.24880   Biso      1.000     H          0.131161  
         H3        1.0000    0.68000   0.62900   0.93930   Biso      1.000     H          0.134138  
         H4        1.0000    0.18000   0.87100   0.56070   Biso      1.000     H          0.134138  
         H5        1.0000    0.91800   0.81510   0.02480   Biso      1.000     H          0.13184400000000002           
         H6        1.0000    0.14150   0.15410   0.07570   Biso      1.000     H          0.112803  
         H7        1.0000    0.19140   0.85120   0.45090   Biso      1.000     H          0.13003699999999999           
         H8        1.0000    0.84920   0.73620   0.22040   Biso      1.000     H          0.11633800000000001           
         H9        1.0000    0.82000   0.12900   0.43930   Biso      1.000     H          0.134138  
         H10       1.0000    0.69140   0.64880   0.04910   Biso      1.000     H          0.13003699999999999           
         H11       1.0000    0.30860   0.35120   0.95090   Biso      1.000     H          0.13003699999999999           
         H12       1.0000    0.64150   0.34590   0.42430   Biso      1.000     H          0.112803  
         H13       1.0000    0.58200   0.31510   0.52480   Biso      1.000     H          0.13184400000000002           
         H14       1.0000    0.41800   0.68490   0.47520   Biso      1.000     H          0.13184400000000002           
         H15       1.0000    0.85850   0.84590   0.92430   Biso      1.000     H          0.112803  
         H16       1.0000    0.71970   0.73650   0.74880   Biso      1.000     H          0.131161  
         H17       1.0000    0.34920   0.76380   0.27960   Biso      1.000     H          0.11633800000000001           
         H18       1.0000    0.32000   0.37100   0.06070   Biso      1.000     H          0.134138  
         H19       1.0000    0.15080   0.26380   0.77960   Biso      1.000     H          0.11633800000000001           
         H20       1.0000    0.08200   0.18490   0.97520   Biso      1.000     H          0.13184400000000002           
         H21       1.0000    0.80860   0.14880   0.54910   Biso      1.000     H          0.13003699999999999           
         H22       1.0000    0.65080   0.23620   0.72040   Biso      1.000     H          0.11633800000000001           
         H23       1.0000    0.28030   0.26350   0.25120   Biso      1.000     H          0.131161  
         H24       1.0000    0.35850   0.65410   0.57570   Biso      1.000     H          0.112803  
         O1        1.0000    0.12474   0.05215   0.17882   Biso      1.000     O          -0.722209           
         O2        1.0000    0.36689   0.42064   0.84531   Biso      1.000     O          -0.519981           
         O3        1.0000    0.08764   0.88902   0.75638   Biso      1.000     O          -0.5846600000000001           
         O4        1.0000    0.28934   0.36991   0.74620   Biso      1.000     O          -0.733899           
         O5        1.0000    0.58764   0.61098   0.74362   Biso      1.000     O          -0.5846600000000001           
         O6        1.0000    0.86689   0.07936   0.65469   Biso      1.000     O          -0.519981           
         O7        1.0000    0.43607   0.43758   0.14810   Biso      1.000     O          -0.563074           
         O8        1.0000    0.06393   0.93758   0.64810   Biso      1.000     O          -0.563074           
         O9        1.0000    0.54342   0.63408   0.37989   Biso      1.000     O          -0.70675  
         O10       1.0000    0.56393   0.56242   0.85190   Biso      1.000     O          -0.563074           
         O11       1.0000    0.53466   0.37391   0.72435   Biso      1.000     O          -0.545903           
         O12       1.0000    0.13311   0.92064   0.34531   Biso      1.000     O          -0.519981           
         O13       1.0000    0.71066   0.63009   0.25380   Biso      1.000     O          -0.733899           
         O14       1.0000    0.96534   0.87391   0.22435   Biso      1.000     O          -0.545903           
         O15       1.0000    0.63311   0.57936   0.15469   Biso      1.000     O          -0.519981           
         O16       1.0000    0.91236   0.11098   0.24362   Biso      1.000     O          -0.5846600000000001           
         O17       1.0000    0.41236   0.38902   0.25638   Biso      1.000     O          -0.5846600000000001           
         O18       1.0000    0.35331   0.64164   0.77916   Biso      1.000     O          -0.505961           
         O19       1.0000    0.14669   0.14164   0.27916   Biso      1.000     O          -0.505961           
         O20       1.0000    0.45658   0.36592   0.62011   Biso      1.000     O          -0.70675  
         O21       1.0000    0.21066   0.86991   0.24620   Biso      1.000     O          -0.733899           
         O22       1.0000    0.87526   0.94785   0.82118   Biso      1.000     O          -0.722209           
         O23       1.0000    0.04342   0.86592   0.12011   Biso      1.000     O          -0.70675  
         O24       1.0000    0.85331   0.85836   0.72084   Biso      1.000     O          -0.505961           
         O25       1.0000    0.93607   0.06242   0.35190   Biso      1.000     O          -0.563074           
         O26       1.0000    0.03466   0.12609   0.77565   Biso      1.000     O          -0.545903           
         O27       1.0000    0.78934   0.13009   0.75380   Biso      1.000     O          -0.733899           
         O28       1.0000    0.64669   0.35836   0.22084   Biso      1.000     O          -0.505961           
         O29       1.0000    0.95658   0.13408   0.87989   Biso      1.000     O          -0.70675  
         O30       1.0000    0.46534   0.62609   0.27565   Biso      1.000     O          -0.545903           
         O31       1.0000    0.37526   0.55215   0.67882   Biso      1.000     O          -0.722209           
         O32       1.0000    0.62474   0.44785   0.32118   Biso      1.000     O          -0.722209 