
##########################################################################
#               Crystallographic Information Format file
#               Produced by PyCifRW module
#
#  This is a CIF file.  CIF has been adopted by the International
#  Union of Crystallography as the standard for data archiving and
#  transmission.
#
#  For information on this file format, follow the CIF links at
#  http://www.iucr.org
##########################################################################

data_image0

_cell_length_a                          10.1884
_cell_length_b                          10.1884
_cell_length_c                          11.7332
_cell_angle_alpha                       85.062
_cell_angle_beta                        85.062
_cell_angle_gamma                       70.5414
_symmetry_space_group_name_H-M          'P 1'
_symmetry_int_tables_number             1
loop_
  _symmetry_equiv_pos_as_xyz
         'x, y, z' 
loop_
  _atom_site_label
  _atom_site_occupancy
  _atom_site_fract_x
  _atom_site_fract_y
  _atom_site_fract_z
  _atom_site_thermal_displace_type
  _atom_site_B_iso_or_equiv
  _atom_site_type_symbol
  _atom_site_charge
         C1        1.0000    0.88590   0.66930   0.59300   Biso      1.000     C          -0.121093           
         C2        1.0000    0.40240   0.57800   0.59940   Biso      1.000     C          -0.174371           
         C3        1.0000    0.22290   0.77710   0.50000   Biso      1.000     C          0.10755999999999999           
         C4        1.0000    0.95330   0.52850   0.62030   Biso      1.000     C          -0.058227           
         C5        1.0000    0.20040   0.87900   0.58050   Biso      1.000     C          -0.176297           
         C6        1.0000    0.42200   0.59760   0.40060   Biso      1.000     C          -0.17437  
         C7        1.0000    0.57490   0.06250   0.45650   Biso      1.000     C          0.5939270000000001  
         C8        1.0000    0.35040   0.64960   0.50000   Biso      1.000     C          0.134159  
         C9        1.0000    0.02820   0.48940   0.71750   Biso      1.000     C          0.034621  
         C10       1.0000    0.03450   0.59330   0.78650   Biso      1.000     C          -0.188864           
         C11       1.0000    0.29490   0.12950   0.75080   Biso      1.000     C          -0.117754           
         C12       1.0000    0.15830   0.03190   0.16040   Biso      1.000     C          0.5648920000000001  
         C13       1.0000    0.92800   0.77640   0.16850   Biso      1.000     C          0.07585900000000001           
         C14       1.0000    0.51390   0.46130   0.59480   Biso      1.000     C          0.10032200000000001           
         C15       1.0000    0.96420   0.73300   0.76000   Biso      1.000     C          -0.002802           
         C16       1.0000    0.96810   0.84170   0.83960   Biso      1.000     C          0.564893  
         C17       1.0000    0.26700   0.03580   0.24000   Biso      1.000     C          -0.002803           
         C18       1.0000    0.22970   0.11330   0.33460   Biso      1.000     C          -0.112106           
         C19       1.0000    0.47150   0.04670   0.37970   Biso      1.000     C          -0.058225           
         C20       1.0000    0.03430   0.27010   0.83160   Biso      1.000     C          0.019556999999999998          
         C21       1.0000    0.23300   0.26740   0.71270   Biso      1.000     C          -0.10115700000000001          
         C22       1.0000    0.51060   0.97180   0.28250   Biso      1.000     C          0.034621  
         C23       1.0000    0.53870   0.48610   0.40520   Biso      1.000     C          0.10032200000000001           
         C24       1.0000    0.09970   0.34090   0.75380   Biso      1.000     C          0.06309   
         C25       1.0000    0.22360   0.07200   0.83150   Biso      1.000     C          0.075877  
         C26       1.0000    0.93750   0.42510   0.54350   Biso      1.000     C          0.593928  
         C27       1.0000    0.88670   0.77030   0.66540   Biso      1.000     C          -0.112108           
         C28       1.0000    0.07900   0.99380   0.57440   Biso      1.000     C          0.110634  
         C29       1.0000    0.87050   0.70510   0.24920   Biso      1.000     C          -0.117737           
         C30       1.0000    0.65910   0.90030   0.24620   Biso      1.000     C          0.063082  
         C31       1.0000    0.00620   0.92100   0.42560   Biso      1.000     C          0.110634  
         C32       1.0000    0.12100   0.79960   0.41950   Biso      1.000     C          -0.176297           
         C33       1.0000    0.33070   0.11410   0.40700   Biso      1.000     C          -0.12109600000000001          
         C34       1.0000    0.73260   0.76700   0.28730   Biso      1.000     C          -0.10115700000000001          
         C35       1.0000    0.40670   0.96550   0.21350   Biso      1.000     C          -0.188863           
         C36       1.0000    0.72990   0.96570   0.16840   Biso      1.000     C          0.019565  
         Cd1       1.0000    0.97825   0.02175   0.00000   Biso      1.000     Cd          0.8360770000000001  
         Cd2       1.0000    0.78608   0.21392   0.50000   Biso      1.000     Cd          0.937048  
         H1        1.0000    0.08660   0.56760   0.85090   Biso      1.000     H          0.124296  
         H2        1.0000    0.36070   0.61010   0.66990   Biso      1.000     H          0.137978  
         H3        1.0000    0.13680   0.16540   0.35050   Biso      1.000     H          0.115067  
         H4        1.0000    0.38320   0.07780   0.72170   Biso      1.000     H          0.138007  
         H5        1.0000    0.68350   0.05670   0.14170   Biso      1.000     H          0.101463  
         H6        1.0000    0.30380   0.16040   0.47450   Biso      1.000     H          0.110974  
         H7        1.0000    0.06400   0.06040   0.62780   Biso      1.000     H          0.08858400000000001           
         H8        1.0000    0.92220   0.61680   0.27830   Biso      1.000     H          0.138006  
         H9        1.0000    0.01850   0.73250   0.13910   Biso      1.000     H          0.10091   
         H10       1.0000    0.26410   0.86990   0.63530   Biso      1.000     H          0.13841900000000001           
         H11       1.0000    0.93960   0.93600   0.37220   Biso      1.000     H          0.08858400000000001           
         H12       1.0000    0.54170   0.41070   0.66350   Biso      1.000     H          0.09491000000000001           
         H13       1.0000    0.68960   0.71900   0.34050   Biso      1.000     H          0.11426700000000001           
         H14       1.0000    0.83460   0.86320   0.64950   Biso      1.000     H          0.115067  
         H15       1.0000    0.58930   0.45830   0.33650   Biso      1.000     H          0.094911  
         H16       1.0000    0.28100   0.31040   0.65950   Biso      1.000     H          0.11426800000000001           
         H17       1.0000    0.26750   0.98150   0.86090   Biso      1.000     H          0.100908  
         H18       1.0000    0.38990   0.63930   0.33010   Biso      1.000     H          0.137977  
         H19       1.0000    0.83960   0.69620   0.52550   Biso      1.000     H          0.110974  
         H20       1.0000    0.43240   0.91340   0.14910   Biso      1.000     H          0.124296  
         H21       1.0000    0.13010   0.73590   0.36470   Biso      1.000     H          0.13842000000000002           
         H22       1.0000    0.94330   0.31650   0.85830   Biso      1.000     H          0.101463  
         N1        1.0000    0.98420   0.01580   0.50000   Biso      1.000     N          -0.22512  
         N2        1.0000    0.58640   0.41360   0.50000   Biso      1.000     N          -0.22878400000000002          
         N3        1.0000    0.09490   0.13790   0.87060   Biso      1.000     N          -0.2019   
         N4        1.0000    0.86210   0.90510   0.12940   Biso      1.000     N          -0.201899           
         O1        1.0000    0.06245   0.80985   0.90680   Biso      1.000     O          -0.56734  
         O2        1.0000    0.96020   0.44500   0.43880   Biso      1.000     O          -0.5872109999999999           
         O3        1.0000    0.19015   0.93755   0.09320   Biso      1.000     O          -0.56734  
         O4        1.0000    0.67164   0.10184   0.41020   Biso      1.000     O          -0.6023470000000001           
         O5        1.0000    0.55500   0.03980   0.56120   Biso      1.000     O          -0.5872109999999999           
         O6        1.0000    0.04010   0.12310   0.16570   Biso      1.000     O          -0.596793           
         O7        1.0000    0.87690   0.95990   0.83430   Biso      1.000     O          -0.596793           
         O8        1.0000    0.89816   0.32836   0.58980   Biso      1.000     O          -0.6023470000000001 