
##########################################################################
#               Crystallographic Information Format file
#               Produced by PyCifRW module
#
#  This is a CIF file.  CIF has been adopted by the International
#  Union of Crystallography as the standard for data archiving and
#  transmission.
#
#  For information on this file format, follow the CIF links at
#  http://www.iucr.org
##########################################################################

data_image0

_cell_length_a                          7.28
_cell_length_b                          16.2673
_cell_length_c                          16.2873
_cell_angle_alpha                       106.001
_cell_angle_beta                        90
_cell_angle_gamma                       90
_symmetry_space_group_name_H-M          'P 1'
_symmetry_int_tables_number             1
loop_
  _symmetry_equiv_pos_as_xyz
         'x, y, z' 
loop_
  _atom_site_label
  _atom_site_occupancy
  _atom_site_fract_x
  _atom_site_fract_y
  _atom_site_fract_z
  _atom_site_thermal_displace_type
  _atom_site_B_iso_or_equiv
  _atom_site_type_symbol
  _atom_site_charge
         C1        1.0000    0.40080   0.20300   0.11480   Biso      1.000     C          -0.007809           
         C2        1.0000    0.74490   0.97200   0.63060   Biso      1.000     C          -0.101062           
         C3        1.0000    0.59320   0.66180   0.47960   Biso      1.000     C          0.08469700000000001           
         C4        1.0000    0.09920   0.20300   0.61480   Biso      1.000     C          -0.007809           
         C5        1.0000    0.64730   0.56070   0.58280   Biso      1.000     C          -0.211862           
         C6        1.0000    0.25510   0.02800   0.36940   Biso      1.000     C          -0.101062           
         C7        1.0000    0.51520   0.62380   0.59910   Biso      1.000     C          0.091478  
         C8        1.0000    0.45540   0.78880   0.21000   Biso      1.000     C          0.57689   
         C9        1.0000    0.29330   0.27890   0.73000   Biso      1.000     C          -0.127163           
         C10       1.0000    0.53650   0.94920   0.35290   Biso      1.000     C          0.048221  
         C11       1.0000    0.01520   0.37620   0.90090   Biso      1.000     C          0.091478  
         C12       1.0000    0.35270   0.43930   0.41720   Biso      1.000     C          -0.211862           
         C13       1.0000    0.89710   0.79400   0.77670   Biso      1.000     C          -0.05142000000000001          
         C14       1.0000    0.14560   0.10220   0.88380   Biso      1.000     C          0.069562  
         C15       1.0000    0.09320   0.33820   0.02040   Biso      1.000     C          0.08469700000000001           
         C16       1.0000    0.90520   0.48000   0.49160   Biso      1.000     C          -0.239166           
         C17       1.0000    0.64510   0.87000   0.33920   Biso      1.000     C          0.051071  
         C18       1.0000    0.85270   0.56070   0.08280   Biso      1.000     C          -0.211862           
         C19       1.0000    0.85490   0.87000   0.83920   Biso      1.000     C          0.051071  
         C20       1.0000    0.35440   0.10220   0.38380   Biso      1.000     C          0.06956699999999999           
         C21       1.0000    0.09480   0.52000   0.50840   Biso      1.000     C          -0.239166           
         C22       1.0000    0.77330   0.60030   0.95960   Biso      1.000     C          -0.193646           
         C23       1.0000    0.64560   0.89780   0.61620   Biso      1.000     C          0.06956699999999999           
         C24       1.0000    0.90680   0.66180   0.97960   Biso      1.000     C          0.08470599999999999           
         C25       1.0000    0.46350   0.05080   0.64710   Biso      1.000     C          0.048221  
         C26       1.0000    0.39710   0.20600   0.72330   Biso      1.000     C          -0.051417           
         C27       1.0000    0.79330   0.72110   0.77000   Biso      1.000     C          -0.12716  
         C28       1.0000    0.27330   0.39970   0.54040   Biso      1.000     C          -0.193646           
         C29       1.0000    0.90080   0.79700   0.38520   Biso      1.000     C          -0.007809           
         C30       1.0000    0.35490   0.13000   0.66080   Biso      1.000     C          0.051071  
         C31       1.0000    0.64430   0.72240   0.82290   Biso      1.000     C          -0.12312000000000001          
         C32       1.0000    0.40520   0.52000   0.00840   Biso      1.000     C          -0.239166           
         C33       1.0000    0.22670   0.39970   0.04040   Biso      1.000     C          -0.193638           
         C34       1.0000    0.14510   0.13000   0.16080   Biso      1.000     C          0.051071  
         C35       1.0000    0.95540   0.21120   0.29000   Biso      1.000     C          0.5768909999999999  
         C36       1.0000    0.14730   0.43930   0.91720   Biso      1.000     C          -0.21186100000000002          
         C37       1.0000    0.24490   0.02800   0.86940   Biso      1.000     C          -0.10105700000000001          
         C38       1.0000    0.40680   0.33820   0.52040   Biso      1.000     C          0.08470599999999999           
         C39       1.0000    0.59920   0.79700   0.88520   Biso      1.000     C          -0.007809           
         C40       1.0000    0.20400   0.13090   0.60760   Biso      1.000     C          -0.171323           
         C41       1.0000    0.98480   0.62380   0.09910   Biso      1.000     C          0.091478  
         C42       1.0000    0.65420   0.04900   0.64480   Biso      1.000     C          -0.073435           
         C43       1.0000    0.62470   0.02700   0.36780   Biso      1.000     C          0.028526999999999997          
         C44       1.0000    0.70670   0.72110   0.27000   Biso      1.000     C          -0.127162           
         C45       1.0000    0.79600   0.86910   0.39240   Biso      1.000     C          -0.171323           
         C46       1.0000    0.15420   0.95100   0.85520   Biso      1.000     C          -0.073436           
         C47       1.0000    0.04460   0.78880   0.71000   Biso      1.000     C          0.57689   
         C48       1.0000    0.55360   0.20210   0.05200   Biso      1.000     C          0.565444  
         C49       1.0000    0.24240   0.45270   0.48810   Biso      1.000     C          0.193478  
         C50       1.0000    0.48480   0.37620   0.40090   Biso      1.000     C          0.091478  
         C51       1.0000    0.10290   0.20600   0.22330   Biso      1.000     C          -0.05142000000000001          
         C52       1.0000    0.70400   0.86910   0.89240   Biso      1.000     C          -0.171323           
         C53       1.0000    0.20670   0.27890   0.23000   Biso      1.000     C          -0.12716  
         C54       1.0000    0.74240   0.54730   0.01190   Biso      1.000     C          0.193478  
         C55       1.0000    0.14430   0.27760   0.67710   Biso      1.000     C          -0.12312000000000001          
         C56       1.0000    0.34580   0.95100   0.35520   Biso      1.000     C          -0.073435           
         C57       1.0000    0.25760   0.45270   0.98810   Biso      1.000     C          0.193477  
         C58       1.0000    0.87530   0.02700   0.86780   Biso      1.000     C          0.028524  
         C59       1.0000    0.85440   0.89780   0.11620   Biso      1.000     C          0.069561  
         C60       1.0000    0.85570   0.72240   0.32290   Biso      1.000     C          -0.12312000000000001          
         C61       1.0000    0.60290   0.79400   0.27670   Biso      1.000     C          -0.051417           
         C62       1.0000    0.44640   0.79790   0.94800   Biso      1.000     C          0.565444  
         C63       1.0000    0.96350   0.94920   0.85290   Biso      1.000     C          0.048224  
         C64       1.0000    0.75760   0.54730   0.51190   Biso      1.000     C          0.193477  
         C65       1.0000    0.94640   0.20210   0.55200   Biso      1.000     C          0.565444  
         C66       1.0000    0.35570   0.27760   0.17710   Biso      1.000     C          -0.12312000000000001          
         C67       1.0000    0.29600   0.13090   0.10760   Biso      1.000     C          -0.171323           
         C68       1.0000    0.59480   0.48000   0.99160   Biso      1.000     C          -0.239166           
         C69       1.0000    0.54460   0.21120   0.79000   Biso      1.000     C          0.57689   
         C70       1.0000    0.12470   0.97300   0.13220   Biso      1.000     C          0.028524  
         C71       1.0000    0.72670   0.60030   0.45960   Biso      1.000     C          -0.193638           
         C72       1.0000    0.05360   0.79790   0.44800   Biso      1.000     C          0.565444  
         C73       1.0000    0.84580   0.04900   0.14480   Biso      1.000     C          -0.073439           
         C74       1.0000    0.37530   0.97300   0.63220   Biso      1.000     C          0.028526999999999997          
         C75       1.0000    0.75510   0.97200   0.13060   Biso      1.000     C          -0.10105399999999999          
         C76       1.0000    0.03650   0.05080   0.14710   Biso      1.000     C          0.048224  
         Cd1       1.0000    0.27410   0.78123   0.57706   Biso      1.000     Cd          0.81477   
         Cd2       1.0000    0.72590   0.21877   0.42294   Biso      1.000     Cd          0.81477   
         Cd3       1.0000    0.77410   0.21877   0.92294   Biso      1.000     Cd          0.81477   
         Cd4       1.0000    0.22590   0.78123   0.07706   Biso      1.000     Cd          0.81477   
         H1        1.0000    0.60410   0.44760   0.93200   Biso      1.000     H          0.12702   
         H2        1.0000    0.27970   0.90050   0.34720   Biso      1.000     H          0.120609  
         H3        1.0000    0.38750   0.55910   0.97370   Biso      1.000     H          0.126032  
         H4        1.0000    0.29230   0.15400   0.39420   Biso      1.000     H          0.088785  
         H5        1.0000    0.33810   0.47300   0.38000   Biso      1.000     H          0.13295099999999999           
         H6        1.0000    0.20280   0.40600   0.58940   Biso      1.000     H          0.130654  
         H7        1.0000    0.39590   0.55240   0.06800   Biso      1.000     H          0.12702   
         H8        1.0000    0.87260   0.97030   0.63090   Biso      1.000     H          0.130749  
         H9        1.0000    0.07520   0.30400   0.05700   Biso      1.000     H          0.093041  
         H10       1.0000    0.22030   0.90050   0.84720   Biso      1.000     H          0.120609  
         H11       1.0000    0.12740   0.02970   0.36910   Biso      1.000     H          0.130749  
         H12       1.0000    0.67360   0.91910   0.93410   Biso      1.000     H          0.12697   
         H13       1.0000    0.92480   0.69600   0.94300   Biso      1.000     H          0.09304   
         H14       1.0000    0.77970   0.09950   0.15280   Biso      1.000     H          0.12061   
         H15       1.0000    0.88750   0.44090   0.52630   Biso      1.000     H          0.126032  
         H16       1.0000    0.92580   0.67320   0.31690   Biso      1.000     H          0.113043  
         H17       1.0000    0.55830   0.36910   0.35280   Biso      1.000     H          0.099212  
         H18       1.0000    0.17360   0.08090   0.56590   Biso      1.000     H          0.12697   
         H19       1.0000    0.89590   0.44760   0.43200   Biso      1.000     H          0.12702   
         H20       1.0000    0.25240   0.97280   0.13310   Biso      1.000     H          0.105268  
         H21       1.0000    0.42480   0.30400   0.55700   Biso      1.000     H          0.09304   
         H22       1.0000    0.07420   0.32680   0.68310   Biso      1.000     H          0.113043  
         H23       1.0000    0.44170   0.63090   0.64720   Biso      1.000     H          0.099212  
         H24       1.0000    0.20770   0.15400   0.89420   Biso      1.000     H          0.088786  
         H25       1.0000    0.57520   0.69600   0.44300   Biso      1.000     H          0.093041  
         H26       1.0000    0.32640   0.08090   0.06590   Biso      1.000     H          0.12697   
         H27       1.0000    0.70770   0.84600   0.60580   Biso      1.000     H          0.088785  
         H28       1.0000    0.79720   0.59400   0.41060   Biso      1.000     H          0.130654  
         H29       1.0000    0.29720   0.40600   0.08940   Biso      1.000     H          0.130654  
         H30       1.0000    0.82420   0.67060   0.72920   Biso      1.000     H          0.107896  
         H31       1.0000    0.62740   0.97030   0.13090   Biso      1.000     H          0.130748  
         H32       1.0000    0.79230   0.84600   0.10580   Biso      1.000     H          0.088786  
         H33       1.0000    0.72030   0.09950   0.65280   Biso      1.000     H          0.120609  
         H34       1.0000    0.70280   0.59400   0.91060   Biso      1.000     H          0.130654  
         H35       1.0000    0.24760   0.97280   0.63310   Biso      1.000     H          0.105268  
         H36       1.0000    0.42580   0.32680   0.18310   Biso      1.000     H          0.113043  
         H37       1.0000    0.82640   0.91910   0.43410   Biso      1.000     H          0.12697   
         H38       1.0000    0.75240   0.02720   0.36690   Biso      1.000     H          0.105268  
         H39       1.0000    0.32420   0.32940   0.77080   Biso      1.000     H          0.107896  
         H40       1.0000    0.61250   0.44090   0.02630   Biso      1.000     H          0.126032  
         H41       1.0000    0.67580   0.67060   0.22920   Biso      1.000     H          0.107896  
         H42       1.0000    0.94170   0.36910   0.85280   Biso      1.000     H          0.099213  
         H43       1.0000    0.16190   0.47300   0.88000   Biso      1.000     H          0.132952  
         H44       1.0000    0.66190   0.52700   0.62000   Biso      1.000     H          0.132952  
         H45       1.0000    0.83810   0.52700   0.12000   Biso      1.000     H          0.13295099999999999           
         H46       1.0000    0.17580   0.32940   0.27080   Biso      1.000     H          0.107896  
         H47       1.0000    0.74760   0.02720   0.86690   Biso      1.000     H          0.105268  
         H48       1.0000    0.57420   0.67320   0.81690   Biso      1.000     H          0.113043  
         H49       1.0000    0.37260   0.02970   0.86910   Biso      1.000     H          0.130748  
         H50       1.0000    0.10410   0.55240   0.56800   Biso      1.000     H          0.12702   
         H51       1.0000    0.05830   0.63090   0.14720   Biso      1.000     H          0.099213  
         H52       1.0000    0.11250   0.55910   0.47370   Biso      1.000     H          0.126032  
         N1        1.0000    0.53800   0.10230   0.38350   Biso      1.000     N          -0.22805100000000003          
         N2        1.0000    0.46200   0.89770   0.61650   Biso      1.000     N          -0.22805100000000003          
         N3        1.0000    0.96200   0.10230   0.88350   Biso      1.000     N          -0.22805  
         N4        1.0000    0.98770   0.32480   0.95090   Biso      1.000     N          -0.22389099999999998          
         N5        1.0000    0.51230   0.32480   0.45090   Biso      1.000     N          -0.223892           
         N6        1.0000    0.48770   0.67520   0.54910   Biso      1.000     N          -0.22389099999999998          
         N7        1.0000    0.01230   0.67520   0.04910   Biso      1.000     N          -0.223892           
         N8        1.0000    0.03800   0.89770   0.11650   Biso      1.000     N          -0.22805  
         O1        1.0000    0.39930   0.86650   0.99720   Biso      1.000     O          -0.548424           
         O2        1.0000    0.12570   0.72792   0.44943   Biso      1.000     O          -0.59254  
         O3        1.0000    0.89930   0.13350   0.50280   Biso      1.000     O          -0.548424           
         O4        1.0000    0.94490   0.15360   0.32557   Biso      1.000     O          -0.541079           
         O5        1.0000    0.55510   0.15360   0.82557   Biso      1.000     O          -0.541079           
         O6        1.0000    0.10070   0.86650   0.49720   Biso      1.000     O          -0.548424           
         O7        1.0000    0.14630   0.72491   0.68950   Biso      1.000     O          -0.592392           
         O8        1.0000    0.64630   0.27509   0.81050   Biso      1.000     O          -0.592392           
         O9        1.0000    0.87430   0.27208   0.55057   Biso      1.000     O          -0.59254  
         O10       1.0000    0.60070   0.13350   0.00280   Biso      1.000     O          -0.548424           
         O11       1.0000    0.35370   0.72491   0.18950   Biso      1.000     O          -0.592392           
         O12       1.0000    0.44490   0.84640   0.17443   Biso      1.000     O          -0.541079           
         O13       1.0000    0.05510   0.84640   0.67443   Biso      1.000     O          -0.541079           
         O14       1.0000    0.62570   0.27208   0.05057   Biso      1.000     O          -0.59254  
         O15       1.0000    0.85370   0.27509   0.31050   Biso      1.000     O          -0.592392           
         O16       1.0000    0.37430   0.72792   0.94943   Biso      1.000     O          -0.59254 