
##########################################################################
#               Crystallographic Information Format file
#               Produced by PyCifRW module
#
#  This is a CIF file.  CIF has been adopted by the International
#  Union of Crystallography as the standard for data archiving and
#  transmission.
#
#  For information on this file format, follow the CIF links at
#  http://www.iucr.org
##########################################################################

data_image0

_cell_length_a                          13.908
_cell_length_b                          8.409
_cell_length_c                          13.042
_cell_angle_alpha                       90
_cell_angle_beta                        90
_cell_angle_gamma                       90
_symmetry_space_group_name_H-M          'P 1'
_symmetry_int_tables_number             1
loop_
  _symmetry_equiv_pos_as_xyz
         'x, y, z' 
loop_
  _atom_site_label
  _atom_site_occupancy
  _atom_site_fract_x
  _atom_site_fract_y
  _atom_site_fract_z
  _atom_site_thermal_displace_type
  _atom_site_B_iso_or_equiv
  _atom_site_type_symbol
  _atom_site_charge
         C1        1.0000    0.11290   0.03150   0.08060   Biso      1.000     C          0.599062  
         C2        1.0000    0.91150   0.05860   0.60870   Biso      1.000     C          -0.377977           
         C3        1.0000    0.83710   0.18770   0.62300   Biso      1.000     C          0.710184  
         C4        1.0000    0.61290   0.96850   0.41940   Biso      1.000     C          0.599069  
         C5        1.0000    0.53910   0.93640   0.50380   Biso      1.000     C          -0.108563           
         C6        1.0000    0.58850   0.94140   0.60870   Biso      1.000     C          -0.377975           
         C7        1.0000    0.66290   0.81230   0.62300   Biso      1.000     C          0.710181  
         C8        1.0000    0.88710   0.96850   0.91940   Biso      1.000     C          0.599052  
         C9        1.0000    0.96090   0.93640   0.00380   Biso      1.000     C          -0.10856  
         C10       1.0000    0.83710   0.81230   0.12300   Biso      1.000     C          0.710181  
         C11       1.0000    0.61290   0.03150   0.91940   Biso      1.000     C          0.599059  
         C12       1.0000    0.53910   0.06360   0.00380   Biso      1.000     C          -0.108559           
         C13       1.0000    0.58850   0.05860   0.10870   Biso      1.000     C          -0.377975           
         C14       1.0000    0.66290   0.18770   0.12300   Biso      1.000     C          0.710181  
         C15       1.0000    0.11290   0.96850   0.58060   Biso      1.000     C          0.59907   
         C16       1.0000    0.03910   0.93640   0.49620   Biso      1.000     C          -0.108562           
         C17       1.0000    0.08850   0.94140   0.39130   Biso      1.000     C          -0.377976           
         C18       1.0000    0.16290   0.81230   0.37700   Biso      1.000     C          0.710183  
         C19       1.0000    0.38710   0.03150   0.58060   Biso      1.000     C          0.599061  
         C20       1.0000    0.46090   0.06360   0.49620   Biso      1.000     C          -0.108561           
         C21       1.0000    0.41150   0.05860   0.39130   Biso      1.000     C          -0.377976           
         C22       1.0000    0.33710   0.18770   0.37700   Biso      1.000     C          0.710181  
         C23       1.0000    0.96090   0.06360   0.50380   Biso      1.000     C          -0.108563           
         C24       1.0000    0.88710   0.03150   0.41940   Biso      1.000     C          0.599071  
         C25       1.0000    0.91150   0.94140   0.10870   Biso      1.000     C          -0.377975           
         C26       1.0000    0.16290   0.18770   0.87700   Biso      1.000     C          0.710183  
         C27       1.0000    0.38710   0.96850   0.08060   Biso      1.000     C          0.599064  
         C28       1.0000    0.46090   0.93640   0.99620   Biso      1.000     C          -0.10856  
         C29       1.0000    0.08850   0.05860   0.89130   Biso      1.000     C          -0.377978           
         C30       1.0000    0.33710   0.81230   0.87700   Biso      1.000     C          0.71018   
         C31       1.0000    0.41150   0.94140   0.89130   Biso      1.000     C          -0.377976           
         C32       1.0000    0.03910   0.06360   0.99620   Biso      1.000     C          -0.108558           
         H1        1.0000    0.04010   0.06880   0.83820   Biso      1.000     H          0.160199  
         H2        1.0000    0.51050   0.16880   0.99330   Biso      1.000     H          0.106408  
         H3        1.0000    0.54010   0.06880   0.16180   Biso      1.000     H          0.160198  
         H4        1.0000    0.48950   0.83120   0.00670   Biso      1.000     H          0.106405  
         H5        1.0000    0.98950   0.83120   0.99330   Biso      1.000     H          0.106411  
         H6        1.0000    0.04010   0.93120   0.33820   Biso      1.000     H          0.1602    
         H7        1.0000    0.95990   0.93120   0.16180   Biso      1.000     H          0.160198  
         H8        1.0000    0.88070   0.04410   0.11710   Biso      1.000     H          0.155296  
         H9        1.0000    0.48950   0.16880   0.50670   Biso      1.000     H          0.106406  
         H10       1.0000    0.01050   0.16880   0.00670   Biso      1.000     H          0.106409  
         H11       1.0000    0.61930   0.04410   0.61710   Biso      1.000     H          0.155294  
         H12       1.0000    0.11930   0.04410   0.38290   Biso      1.000     H          0.155298  
         H13       1.0000    0.54010   0.93120   0.66180   Biso      1.000     H          0.160197  
         H14       1.0000    0.38070   0.04410   0.88290   Biso      1.000     H          0.155293  
         H15       1.0000    0.51050   0.83120   0.49330   Biso      1.000     H          0.106408  
         H16       1.0000    0.45990   0.06880   0.33820   Biso      1.000     H          0.160198  
         H17       1.0000    0.38070   0.95590   0.38290   Biso      1.000     H          0.155294  
         H18       1.0000    0.01050   0.83120   0.50670   Biso      1.000     H          0.106411  
         H19       1.0000    0.61930   0.95590   0.11710   Biso      1.000     H          0.155294  
         H20       1.0000    0.88070   0.95590   0.61710   Biso      1.000     H          0.155298  
         H21       1.0000    0.95990   0.06880   0.66180   Biso      1.000     H          0.160201  
         H22       1.0000    0.98950   0.16880   0.49330   Biso      1.000     H          0.106413  
         H23       1.0000    0.45990   0.93120   0.83820   Biso      1.000     H          0.160197  
         H24       1.0000    0.11930   0.95590   0.88290   Biso      1.000     H          0.155297  
         O1        1.0000    0.12420   0.12410   0.15260   Biso      1.000     O          -0.515372           
         O2        1.0000    0.16190   0.90580   0.07730   Biso      1.000     O          -0.559746           
         O3        1.0000    0.21210   0.53830   0.78240   Biso      1.000     O          -0.050253           
         O4        1.0000    0.16190   0.09420   0.57730   Biso      1.000     O          -0.559749           
         O5        1.0000    0.16320   0.69850   0.43670   Biso      1.000     O          -0.534011           
         O6        1.0000    0.22040   0.82630   0.30320   Biso      1.000     O          -0.565179           
         O7        1.0000    0.71210   0.46170   0.71760   Biso      1.000     O          -0.050254           
         O8        1.0000    0.37580   0.12410   0.65260   Biso      1.000     O          -0.515369           
         O9        1.0000    0.33810   0.90580   0.57730   Biso      1.000     O          -0.559745           
         O10       1.0000    0.33680   0.30150   0.43670   Biso      1.000     O          -0.53401  
         O11       1.0000    0.27960   0.17370   0.30320   Biso      1.000     O          -0.565185           
         O12       1.0000    0.28790   0.46170   0.78240   Biso      1.000     O          -0.050294           
         O13       1.0000    0.12420   0.87590   0.65260   Biso      1.000     O          -0.515374           
         O14       1.0000    0.72040   0.17370   0.19680   Biso      1.000     O          -0.56518  
         O15       1.0000    0.27960   0.82630   0.80320   Biso      1.000     O          -0.565184           
         O16       1.0000    0.66190   0.90580   0.92270   Biso      1.000     O          -0.559743           
         O17       1.0000    0.33680   0.69850   0.93670   Biso      1.000     O          -0.534006           
         O18       1.0000    0.33810   0.09420   0.07730   Biso      1.000     O          -0.559752           
         O19       1.0000    0.87580   0.12410   0.34740   Biso      1.000     O          -0.51538  
         O20       1.0000    0.83810   0.90580   0.42270   Biso      1.000     O          -0.559744           
         O21       1.0000    0.83680   0.30150   0.56330   Biso      1.000     O          -0.534007           
         O22       1.0000    0.77960   0.17370   0.69680   Biso      1.000     O          -0.565178           
         O23       1.0000    0.78790   0.46170   0.21760   Biso      1.000     O          -0.050251           
         O24       1.0000    0.37580   0.87590   0.15260   Biso      1.000     O          -0.515373           
         O25       1.0000    0.66320   0.30150   0.06330   Biso      1.000     O          -0.534001           
         O26       1.0000    0.66190   0.09420   0.42270   Biso      1.000     O          -0.559753           
         O27       1.0000    0.66320   0.69850   0.56330   Biso      1.000     O          -0.534006           
         O28       1.0000    0.72040   0.82630   0.69680   Biso      1.000     O          -0.565182           
         O29       1.0000    0.62420   0.87590   0.34740   Biso      1.000     O          -0.515381           
         O30       1.0000    0.16320   0.30150   0.93670   Biso      1.000     O          -0.534007           
         O31       1.0000    0.87580   0.87590   0.84740   Biso      1.000     O          -0.515363           
         O32       1.0000    0.83810   0.09420   0.92270   Biso      1.000     O          -0.559742           
         O33       1.0000    0.83680   0.69850   0.06330   Biso      1.000     O          -0.534003           
         O34       1.0000    0.77960   0.82630   0.19680   Biso      1.000     O          -0.565176           
         O35       1.0000    0.78790   0.53830   0.71760   Biso      1.000     O          -0.050297           
         O36       1.0000    0.21210   0.46170   0.28240   Biso      1.000     O          -0.050254           
         O37       1.0000    0.22040   0.17370   0.80320   Biso      1.000     O          -0.565177           
         O38       1.0000    0.28790   0.53830   0.28240   Biso      1.000     O          -0.05029  
         O39       1.0000    0.71210   0.53830   0.21760   Biso      1.000     O          -0.050288           
         O40       1.0000    0.62420   0.12410   0.84740   Biso      1.000     O          -0.515362           
         Zn1       1.0000    0.75000   0.50000   0.56921   Biso      1.000     Zn          1.002071  
         Zn2       1.0000    0.25000   0.50000   0.93079   Biso      1.000     Zn          1.00207   
         Zn3       1.0000    0.25000   0.00000   0.70578   Biso      1.000     Zn          0.957863  
         Zn4       1.0000    0.75000   0.50000   0.06921   Biso      1.000     Zn          1.002055  
         Zn5       1.0000    0.75000   0.00000   0.29422   Biso      1.000     Zn          0.957863  
         Zn6       1.0000    0.25000   0.00000   0.20578   Biso      1.000     Zn          0.957867  
         Zn7       1.0000    0.75000   0.00000   0.79422   Biso      1.000     Zn          0.957862  
         Zn8       1.0000    0.25000   0.50000   0.43079   Biso      1.000     Zn          1.002077 