
##########################################################################
#               Crystallographic Information Format file
#               Produced by PyCifRW module
#
#  This is a CIF file.  CIF has been adopted by the International
#  Union of Crystallography as the standard for data archiving and
#  transmission.
#
#  For information on this file format, follow the CIF links at
#  http://www.iucr.org
##########################################################################

data_image0

_cell_length_a                          6.1231
_cell_length_b                          7.4705
_cell_length_c                          13.063
_cell_angle_alpha                       88.25
_cell_angle_beta                        81.24
_cell_angle_gamma                       89.27
_symmetry_space_group_name_H-M          'P 1'
_symmetry_int_tables_number             1
loop_
  _symmetry_equiv_pos_as_xyz
         'x, y, z' 
loop_
  _atom_site_label
  _atom_site_occupancy
  _atom_site_fract_x
  _atom_site_fract_y
  _atom_site_fract_z
  _atom_site_thermal_displace_type
  _atom_site_B_iso_or_equiv
  _atom_site_type_symbol
  _atom_site_charge
         C1        1.0000    0.44070   0.87550   0.01050   Biso      1.000     C          0.087088  
         C2        1.0000    0.65330   0.06080   0.32780   Biso      1.000     C          0.632516  
         C3        1.0000    0.90350   0.63180   0.43120   Biso      1.000     C          0.635554  
         C4        1.0000    0.66280   0.77630   0.01540   Biso      1.000     C          0.03788   
         C5        1.0000    0.11630   0.13660   0.56530   Biso      1.000     C          0.625806  
         C6        1.0000    0.26470   0.37040   0.66590   Biso      1.000     C          0.039614  
         C7        1.0000    0.33030   0.92180   0.11890   Biso      1.000     C          0.620931  
         C8        1.0000    0.30180   0.26780   0.56360   Biso      1.000     C          0.043961  
         C9        1.0000    0.77550   0.73780   0.90570   Biso      1.000     C          0.571795  
         C10       1.0000    0.39510   0.54250   0.66120   Biso      1.000     C          0.621161  
         C11       1.0000    0.78920   0.88740   0.33150   Biso      1.000     C          0.046362  
         C12       1.0000    0.72510   0.77710   0.43280   Biso      1.000     C          0.055787  
         Ce1       1.0000    0.15221   0.24918   0.31192   Biso      1.000     Ce          2.059945  
         Ce2       1.0000    0.88635   0.73594   0.67963   Biso      1.000     Ce          2.013269  
         H1        1.0000    0.99320   0.33760   0.74430   Biso      1.000     H          0.415951  
         H2        1.0000    0.10800   0.87250   0.27910   Biso      1.000     H          0.389802  
         H3        1.0000    0.30920   0.29210   0.72080   Biso      1.000     H          0.113485  
         H4        1.0000    0.34310   0.79600   0.98030   Biso      1.000     H          0.095429  
         H5        1.0000    0.43950   0.19880   0.56160   Biso      1.000     H          0.115842  
         H6        1.0000    0.58060   0.72180   0.43330   Biso      1.000     H          0.115364  
         H7        1.0000    0.22570   0.46520   0.48790   Biso      1.000     H          0.367317  
         H8        1.0000    0.78990   0.98120   0.06370   Biso      1.000     H          0.376838  
         H9        1.0000    0.59200   0.06710   0.90060   Biso      1.000     H          0.402592  
         H10       1.0000    0.76780   0.81420   0.27290   Biso      1.000     H          0.117595  
         H11       1.0000    0.80470   0.96900   0.50640   Biso      1.000     H          0.380018  
         H12       1.0000    0.62720   0.66030   0.05060   Biso      1.000     H          0.088572  
         O1        1.0000    0.93180   0.83310   0.86470   Biso      1.000     O          -0.637914           
         O2        1.0000    0.44770   0.04670   0.34690   Biso      1.000     O          -0.607835           
         O3        1.0000    0.03360   0.41440   0.69380   Biso      1.000     O          -0.565895           
         O4        1.0000    0.72030   0.88210   0.52190   Biso      1.000     O          -0.588632           
         O5        1.0000    0.08580   0.02310   0.64010   Biso      1.000     O          -0.645436           
         O6        1.0000    0.01440   0.93440   0.32190   Biso      1.000     O          -0.60721  
         O7        1.0000    0.60230   0.52930   0.64530   Biso      1.000     O          -0.620063           
         O8        1.0000    0.32230   0.38080   0.47220   Biso      1.000     O          -0.573686           
         O9        1.0000    0.29030   0.68870   0.67280   Biso      1.000     O          -0.618196           
         O10       1.0000    0.27500   0.78590   0.17930   Biso      1.000     O          -0.620241           
         O11       1.0000    0.30070   0.08100   0.13940   Biso      1.000     O          -0.678105           
         O12       1.0000    0.93250   0.52830   0.35560   Biso      1.000     O          -0.642238           
         O13       1.0000    0.01750   0.63010   0.50310   Biso      1.000     O          -0.624791           
         O14       1.0000    0.00430   0.14700   0.49320   Biso      1.000     O          -0.61483  
         O15       1.0000    0.79660   0.86750   0.07490   Biso      1.000     O          -0.502844           
         O16       1.0000    0.69380   0.61660   0.85860   Biso      1.000     O          -0.65751  
         O17       1.0000    0.48760   0.02820   0.94280   Biso      1.000     O          -0.622892           
         O18       1.0000    0.75640   0.20400   0.30530   Biso      1.000     O          -0.642157 