
##########################################################################
#               Crystallographic Information Format file
#               Produced by PyCifRW module
#
#  This is a CIF file.  CIF has been adopted by the International
#  Union of Crystallography as the standard for data archiving and
#  transmission.
#
#  For information on this file format, follow the CIF links at
#  http://www.iucr.org
##########################################################################

data_image0

_cell_length_a                          10.4951
_cell_length_b                          11.3396
_cell_length_c                          12.7954
_cell_angle_alpha                       100.73
_cell_angle_beta                        110.142
_cell_angle_gamma                       99.732
_symmetry_space_group_name_H-M          'P 1'
_symmetry_int_tables_number             1
loop_
  _symmetry_equiv_pos_as_xyz
         'x, y, z' 
loop_
  _atom_site_label
  _atom_site_occupancy
  _atom_site_fract_x
  _atom_site_fract_y
  _atom_site_fract_z
  _atom_site_thermal_displace_type
  _atom_site_B_iso_or_equiv
  _atom_site_type_symbol
  _atom_site_charge
         C1        1.0000    0.15131   0.51082   0.52635   Biso      1.000     C          -0.146662           
         C2        1.0000    0.90909   0.85804   0.94712   Biso      1.000     C          -0.135609           
         C3        1.0000    0.81132   0.74278   0.84687   Biso      1.000     C          0.644972  
         C4        1.0000    0.52271   0.94340   0.41273   Biso      1.000     C          -0.085465           
         C5        1.0000    0.46792   0.96119   0.58380   Biso      1.000     C          0.297572  
         C6        1.0000    0.48341   0.88599   0.48864   Biso      1.000     C          -0.143685           
         C7        1.0000    0.49127   0.75608   0.48619   Biso      1.000     C          0.657485  
         C8        1.0000    0.94871   0.58123   0.54837   Biso      1.000     C          -0.204533           
         C9        1.0000    0.90754   0.40887   0.38980   Biso      1.000     C          -0.115766           
         C10       1.0000    0.85248   0.49025   0.44967   Biso      1.000     C          -0.006163           
         C11       1.0000    0.69614   0.47976   0.41053   Biso      1.000     C          0.625198  
         C12       1.0000    0.30879   0.52468   0.56090   Biso      1.000     C          0.603443  
         C13       1.0000    0.05673   0.87466   0.99383   Biso      1.000     C          -0.098507           
         C14       1.0000    0.09487   0.59033   0.58938   Biso      1.000     C          0.309853  
         C15       1.0000    0.05379   0.41943   0.42708   Biso      1.000     C          -0.074576           
         C16       1.0000    0.53794   0.27798   0.53276   Biso      1.000     C          0.600857  
         C17       1.0000    0.53848   0.14725   0.52845   Biso      1.000     C          0.010985  
         C18       1.0000    0.54850   0.07241   0.43181   Biso      1.000     C          -0.132935           
         C19       1.0000    0.49841   0.09073   0.60397   Biso      1.000     C          -0.219861           
         C20       1.0000    0.20589   0.21135   0.20187   Biso      1.000     C          0.577422  
         C21       1.0000    0.10352   0.08742   0.11800   Biso      1.000     C          0.005442  
         C22       1.0000    0.15081   0.98486   0.07819   Biso      1.000     C          -0.147844           
         C23       1.0000    0.95637   0.07172   0.07129   Biso      1.000     C          -0.221085           
         C24       1.0000    0.86034   0.96047   0.98862   Biso      1.000     C          0.296521  
         H1        1.0000    0.83719   0.33672   0.31329   Biso      1.000     H          0.118492  
         H2        1.0000    0.57584   0.11435   0.37040   Biso      1.000     H          0.109228  
         H3        1.0000    0.26228   0.99118   0.10972   Biso      1.000     H          0.106015  
         H4        1.0000    0.27336   0.66409   0.75352   Biso      1.000     H          0.323154  
         H5        1.0000    0.14387   0.74935   0.73186   Biso      1.000     H          0.317221  
         H6        1.0000    0.90966   0.64500   0.59562   Biso      1.000     H          0.133149  
         H7        1.0000    0.10046   0.80161   0.96413   Biso      1.000     H          0.102181  
         H8        1.0000    0.36267   0.81398   0.63298   Biso      1.000     H          0.294043  
         H9        1.0000    0.41785   0.96218   0.73430   Biso      1.000     H          0.297086  
         H10       1.0000    0.53805   0.88904   0.34098   Biso      1.000     H          0.108739  
         H11       1.0000    0.67849   0.03157   0.97503   Biso      1.000     H          0.301098  
         H12       1.0000    0.09073   0.35530   0.37794   Biso      1.000     H          0.120237  
         H13       1.0000    0.48285   0.14666   0.67487   Biso      1.000     H          0.116522  
         H14       1.0000    0.91494   0.14787   0.09826   Biso      1.000     H          0.118398  
         H15       1.0000    0.63947   0.88436   0.87684   Biso      1.000     H          0.306232  
         N1        1.0000    0.41648   0.90700   0.65863   Biso      1.000     N          -0.648455           
         N2        1.0000    0.71400   0.95736   0.94372   Biso      1.000     N          -0.646624           
         N3        1.0000    0.18174   0.67850   0.69768   Biso      1.000     N          -0.627415           
         O1        1.0000    0.45779   0.29272   0.43587   Biso      1.000     O          -0.532613           
         O2        1.0000    0.33250   0.22503   0.26879   Biso      1.000     O          -0.577419           
         O3        1.0000    0.17736   0.31641   0.21186   Biso      1.000     O          -0.729867           
         O4        1.0000    0.61068   0.36709   0.62701   Biso      1.000     O          -0.69806  
         O5        1.0000    0.39704   0.60505   0.64000   Biso      1.000     O          -0.551699           
         O6        1.0000    0.62913   0.55198   0.46092   Biso      1.000     O          -0.814512           
         O7        1.0000    0.69115   0.68087   0.83490   Biso      1.000     O          -0.672579           
         O8        1.0000    0.83528   0.70308   0.75792   Biso      1.000     O          -0.688163           
         O9        1.0000    0.42901   0.66546   0.39131   Biso      1.000     O          -0.716596           
         O10       1.0000    0.56576   0.74386   0.58457   Biso      1.000     O          -0.62053  
         O11       1.0000    0.60814   0.40985   0.32234   Biso      1.000     O          -0.549738           
         O12       1.0000    0.37792   0.44914   0.51668   Biso      1.000     O          -0.78038  
         Pr1       1.0000    0.40060   0.44496   0.34263   Biso      1.000     Pr          2.041722  
         Pr2       1.0000    0.61101   0.57328   0.63661   Biso      1.000     Pr          2.044071 