
##########################################################################
#               Crystallographic Information Format file
#               Produced by PyCifRW module
#
#  This is a CIF file.  CIF has been adopted by the International
#  Union of Crystallography as the standard for data archiving and
#  transmission.
#
#  For information on this file format, follow the CIF links at
#  http://www.iucr.org
##########################################################################

data_image0

_cell_length_a                          14.17
_cell_length_b                          16.381
_cell_length_c                          19.415
_cell_angle_alpha                       104.25
_cell_angle_beta                        90
_cell_angle_gamma                       90
_symmetry_space_group_name_H-M          'P 1'
_symmetry_int_tables_number             1
loop_
  _symmetry_equiv_pos_as_xyz
         'x, y, z' 
loop_
  _atom_site_label
  _atom_site_occupancy
  _atom_site_fract_x
  _atom_site_fract_y
  _atom_site_fract_z
  _atom_site_thermal_displace_type
  _atom_site_B_iso_or_equiv
  _atom_site_type_symbol
  _atom_site_charge
         C1        1.0000    0.35360   0.15690   0.41000   Biso      1.000     C          0.56635   
         C2        1.0000    0.71700   0.52880   0.56910   Biso      1.000     C          0.671042  
         C3        1.0000    0.20630   0.34740   0.06950   Biso      1.000     C          -0.155379           
         C4        1.0000    0.63380   0.20840   0.15520   Biso      1.000     C          -0.231619           
         C5        1.0000    0.18060   0.90250   0.68560   Biso      1.000     C          -0.113665           
         C6        1.0000    0.27250   0.55070   0.03510   Biso      1.000     C          -0.152628           
         C7        1.0000    0.91630   0.88880   0.99620   Biso      1.000     C          -0.251339           
         C8        1.0000    0.21650   0.48570   0.03770   Biso      1.000     C          0.086392  
         C9        1.0000    0.31830   0.26220   0.21430   Biso      1.000     C          0.564845  
         C10       1.0000    0.58370   0.38880   0.49620   Biso      1.000     C          -0.251339           
         C11       1.0000    0.53130   0.32620   0.45460   Biso      1.000     C          0.09402   
         C12       1.0000    0.36590   0.97450   0.49890   Biso      1.000     C          -0.155536           
         C13       1.0000    0.29370   0.84740   0.56950   Biso      1.000     C          -0.155379           
         C14       1.0000    0.79370   0.65260   0.93050   Biso      1.000     C          -0.15538  
         C15       1.0000    0.74110   0.07210   0.41720   Biso      1.000     C          0.07713   
         C16       1.0000    0.14640   0.65690   0.91000   Biso      1.000     C          0.566349  
         C17       1.0000    0.22750   0.05070   0.53510   Biso      1.000     C          -0.15263  
         C18       1.0000    0.88590   0.46680   0.04190   Biso      1.000     C          -0.10213  
         C19       1.0000    0.36220   0.92480   0.81650   Biso      1.000     C          -0.25084  
         C20       1.0000    0.67100   0.90480   0.54680   Biso      1.000     C          -0.022017           
         C21       1.0000    0.78870   0.17860   0.33070   Biso      1.000     C          -0.017259           
         C22       1.0000    0.71650   0.01430   0.46230   Biso      1.000     C          0.086366  
         C23       1.0000    0.43030   0.89270   0.76540   Biso      1.000     C          0.121067  
         C24       1.0000    0.38960   0.54110   0.52850   Biso      1.000     C          0.334209  
         C25       1.0000    0.86590   0.52550   0.00110   Biso      1.000     C          -0.155533           
         C26       1.0000    0.70580   0.54480   0.85750   Biso      1.000     C          -0.152467           
         C27       1.0000    0.70630   0.15260   0.43050   Biso      1.000     C          -0.155374           
         C28       1.0000    0.03130   0.17380   0.04540   Biso      1.000     C          0.094008  
         C29       1.0000    0.76980   0.70630   0.88770   Biso      1.000     C          -0.104927           
         C30       1.0000    0.46870   0.67380   0.54540   Biso      1.000     C          0.094008  
         C31       1.0000    0.28300   0.47120   0.43090   Biso      1.000     C          0.671042  
         C32       1.0000    0.47830   0.60340   0.63310   Biso      1.000     C          0.107533  
         C33       1.0000    0.32770   0.87260   0.85640   Biso      1.000     C          0.332592  
         C34       1.0000    0.86220   0.57520   0.68350   Biso      1.000     C          -0.25084  
         C35       1.0000    0.11410   0.53320   0.95810   Biso      1.000     C          -0.102129           
         C36       1.0000    0.92530   0.96250   0.90540   Biso      1.000     C          -0.253443           
         C37       1.0000    0.25890   0.92790   0.58280   Biso      1.000     C          0.077132  
         C38       1.0000    0.86620   0.70840   0.65520   Biso      1.000     C          -0.231619           
         C39       1.0000    0.25060   0.60680   0.99320   Biso      1.000     C          -0.107067           
         C40       1.0000    0.88960   0.95890   0.97150   Biso      1.000     C          0.334211  
         C41       1.0000    0.23020   0.29370   0.11230   Biso      1.000     C          -0.104926           
         C42       1.0000    0.18170   0.76220   0.71430   Biso      1.000     C          0.564845  
         C43       1.0000    0.78300   0.02880   0.06910   Biso      1.000     C          0.671042  
         C44       1.0000    0.57470   0.46250   0.40540   Biso      1.000     C          -0.253443           
         C45       1.0000    0.21130   0.82140   0.66930   Biso      1.000     C          -0.017252           
         C46       1.0000    0.93440   0.73230   0.70630   Biso      1.000     C          0.094062  
         C47       1.0000    0.13410   0.47450   0.99890   Biso      1.000     C          -0.155531           
         C48       1.0000    0.28350   0.98570   0.53770   Biso      1.000     C          0.086397  
         C49       1.0000    0.26980   0.79370   0.61230   Biso      1.000     C          -0.104922           
         C50       1.0000    0.56970   0.10730   0.23460   Biso      1.000     C          0.121067  
         C51       1.0000    0.38590   0.03320   0.45810   Biso      1.000     C          -0.102127           
         C52       1.0000    0.56560   0.23230   0.20630   Biso      1.000     C          0.094062  
         C53       1.0000    0.61040   0.45890   0.47150   Biso      1.000     C          0.334211  
         C54       1.0000    0.24110   0.42790   0.08280   Biso      1.000     C          0.077132  
         C55       1.0000    0.17100   0.59520   0.95320   Biso      1.000     C          -0.021971           
         C56       1.0000    0.97830   0.89660   0.86690   Biso      1.000     C          0.107538  
         C57       1.0000    0.29420   0.45520   0.14250   Biso      1.000     C          -0.152459           
         C58       1.0000    0.52170   0.39660   0.36690   Biso      1.000     C          0.107538  
         C59       1.0000    0.82770   0.62740   0.64360   Biso      1.000     C          0.332592  
         C60       1.0000    0.28870   0.32140   0.16930   Biso      1.000     C          -0.017256           
         C61       1.0000    0.96870   0.82620   0.95460   Biso      1.000     C          0.09402   
         C62       1.0000    0.32900   0.09520   0.45320   Biso      1.000     C          -0.021983           
         C63       1.0000    0.93030   0.60730   0.73460   Biso      1.000     C          0.121067  
         C64       1.0000    0.63780   0.07520   0.18350   Biso      1.000     C          -0.25084  
         C65       1.0000    0.31940   0.40250   0.18560   Biso      1.000     C          -0.113656           
         C66       1.0000    0.20580   0.95520   0.64250   Biso      1.000     C          -0.152458           
         C67       1.0000    0.13380   0.29160   0.34480   Biso      1.000     C          -0.231618           
         C68       1.0000    0.06560   0.26770   0.29370   Biso      1.000     C          0.094062  
         C69       1.0000    0.81830   0.23780   0.28570   Biso      1.000     C          0.564845  
         C70       1.0000    0.67230   0.12740   0.14360   Biso      1.000     C          0.332592  
         C71       1.0000    0.06970   0.39270   0.26540   Biso      1.000     C          0.121067  
         C72       1.0000    0.68170   0.73780   0.78570   Biso      1.000     C          0.564844  
         C73       1.0000    0.11040   0.04110   0.02850   Biso      1.000     C          0.33421   
         C74       1.0000    0.07470   0.03750   0.09460   Biso      1.000     C          -0.253442           
         C75       1.0000    0.68060   0.59750   0.81440   Biso      1.000     C          -0.113663           
         C76       1.0000    0.78350   0.51430   0.96230   Biso      1.000     C          0.086369  
         C77       1.0000    0.36620   0.79160   0.84480   Biso      1.000     C          -0.231619           
         C78       1.0000    0.74940   0.39320   0.00680   Biso      1.000     C          -0.107072           
         C79       1.0000    0.81940   0.09750   0.31440   Biso      1.000     C          -0.113656           
         C80       1.0000    0.75060   0.89320   0.50680   Biso      1.000     C          -0.107056           
         C81       1.0000    0.17230   0.37260   0.35640   Biso      1.000     C          0.332591  
         C82       1.0000    0.72750   0.44930   0.96490   Biso      1.000     C          -0.152598           
         C83       1.0000    0.08370   0.11120   0.00380   Biso      1.000     C          -0.251328           
         C84       1.0000    0.82900   0.40480   0.04680   Biso      1.000     C          -0.02197  
         C85       1.0000    0.24940   0.10680   0.49320   Biso      1.000     C          -0.107055           
         C86       1.0000    0.41630   0.61120   0.50380   Biso      1.000     C          -0.251328           
         C87       1.0000    0.73020   0.20630   0.38770   Biso      1.000     C          -0.104923           
         C88       1.0000    0.42530   0.53750   0.59460   Biso      1.000     C          -0.253437           
         C89       1.0000    0.63410   0.02550   0.50110   Biso      1.000     C          -0.155534           
         C90       1.0000    0.71130   0.67860   0.83070   Biso      1.000     C          -0.017248           
         C91       1.0000    0.64640   0.84310   0.59000   Biso      1.000     C          0.566354  
         C92       1.0000    0.02170   0.10340   0.13310   Biso      1.000     C          0.107538  
         C93       1.0000    0.13780   0.42480   0.31650   Biso      1.000     C          -0.250839           
         C94       1.0000    0.75890   0.57210   0.91720   Biso      1.000     C          0.077141  
         C95       1.0000    0.61410   0.96680   0.54190   Biso      1.000     C          -0.102091           
         C96       1.0000    0.85360   0.34310   0.09000   Biso      1.000     C          0.56635   
         C97       1.0000    0.21700   0.97120   0.93090   Biso      1.000     C          0.671042  
         C98       1.0000    0.79420   0.04480   0.35750   Biso      1.000     C          -0.152459           
         C99       1.0000    0.43440   0.76770   0.79370   Biso      1.000     C          0.094062  
         C100      1.0000    0.77250   0.94930   0.46490   Biso      1.000     C          -0.1526   
         H1        1.0000    0.10230   0.11500   0.95770   Biso      1.000     H          0.142994  
         H2        1.0000    0.15980   0.48110   0.32360   Biso      1.000     H          0.145064  
         H3        1.0000    0.66520   0.17210   0.46970   Biso      1.000     H          0.103331  
         H4        1.0000    0.25300   0.35500   0.43280   Biso      1.000     H          0.315401  
         H5        1.0000    0.79420   0.76200   0.89800   Biso      1.000     H          0.103342  
         H6        1.0000    0.01680   0.22160   0.02780   Biso      1.000     H          0.09874   
         H7        1.0000    0.74700   0.64500   0.56720   Biso      1.000     H          0.315401  
         H8        1.0000    0.20580   0.23800   0.10200   Biso      1.000     H          0.103342  
         H9        1.0000    0.50010   0.39960   0.32120   Biso      1.000     H          0.098407  
         H10       1.0000    0.18540   0.01220   0.65510   Biso      1.000     H          0.105862  
         H11       1.0000    0.09250   0.42920   0.99950   Biso      1.000     H          0.114395  
         H12       1.0000    0.70580   0.26200   0.39800   Biso      1.000     H          0.103342  
         H13       1.0000    0.05620   0.52760   0.93280   Biso      1.000     H          0.103037  
         H14       1.0000    0.89770   0.88500   0.04230   Biso      1.000     H          0.142994  
         H15       1.0000    0.04080   0.21230   0.28560   Biso      1.000     H          0.088371  
         H16       1.0000    0.90750   0.57080   0.00050   Biso      1.000     H          0.114395  
         H17       1.0000    0.45920   0.71230   0.78560   Biso      1.000     H          0.088371  
         H18       1.0000    0.81460   0.98780   0.34490   Biso      1.000     H          0.105862  
         H19       1.0000    0.41300   0.48980   0.61290   Biso      1.000     H          0.142853  
         H20       1.0000    0.94380   0.47240   0.06720   Biso      1.000     H          0.103037  
         H21       1.0000    0.33670   0.43030   0.50950   Biso      1.000     H          0.309518  
         H22       1.0000    0.68540   0.48780   0.84490   Biso      1.000     H          0.105863  
         H23       1.0000    0.45090   0.92780   0.73610   Biso      1.000     H          0.097941  
         H24       1.0000    0.59250   0.07080   0.50050   Biso      1.000     H          0.114395  
         H25       1.0000    0.83480   0.67210   0.96970   Biso      1.000     H          0.103332  
         H26       1.0000    0.64210   0.57690   0.77380   Biso      1.000     H          0.110614  
         H27       1.0000    0.82890   0.94090   0.43760   Biso      1.000     H          0.108485  
         H28       1.0000    0.08700   0.98980   0.11290   Biso      1.000     H          0.142854  
         H29       1.0000    0.40750   0.92920   0.49950   Biso      1.000     H          0.114395  
         H30       1.0000    0.16330   0.93030   0.00950   Biso      1.000     H          0.309518  
         H31       1.0000    0.15460   0.25390   0.37180   Biso      1.000     H          0.147734  
         H32       1.0000    0.70860   0.34730   0.00720   Biso      1.000     H          0.109089  
         H33       1.0000    0.85790   0.07690   0.27380   Biso      1.000     H          0.110613  
         H34       1.0000    0.75300   0.14500   0.06720   Biso      1.000     H          0.315401  
         H35       1.0000    0.35790   0.42310   0.22620   Biso      1.000     H          0.110613  
         H36       1.0000    0.14210   0.92310   0.72620   Biso      1.000     H          0.110614  
         H37       1.0000    0.99990   0.89960   0.82120   Biso      1.000     H          0.098407  
         H38       1.0000    0.44380   0.02760   0.43280   Biso      1.000     H          0.103036  
         H39       1.0000    0.84020   0.51890   0.67640   Biso      1.000     H          0.145064  
         H40       1.0000    0.51680   0.27840   0.47220   Biso      1.000     H          0.098739  
         H41       1.0000    0.34540   0.75390   0.87180   Biso      1.000     H          0.147734  
         H42       1.0000    0.00010   0.10040   0.17880   Biso      1.000     H          0.098407  
         H43       1.0000    0.04910   0.42780   0.23610   Biso      1.000     H          0.097941  
         H44       1.0000    0.48320   0.72160   0.52780   Biso      1.000     H          0.09874   
         H45       1.0000    0.34020   0.98110   0.82360   Biso      1.000     H          0.145064  
         H46       1.0000    0.24700   0.85500   0.93280   Biso      1.000     H          0.315401  
         H47       1.0000    0.55620   0.97240   0.56720   Biso      1.000     H          0.103034  
         H48       1.0000    0.79140   0.84730   0.50720   Biso      1.000     H          0.109087  
         H49       1.0000    0.67110   0.44090   0.93760   Biso      1.000     H          0.108485  
         H50       1.0000    0.49990   0.60040   0.67880   Biso      1.000     H          0.098408  
         H51       1.0000    0.39770   0.61500   0.45770   Biso      1.000     H          0.142994  
         H52       1.0000    0.65460   0.24610   0.12820   Biso      1.000     H          0.147734  
         H53       1.0000    0.65980   0.01890   0.17640   Biso      1.000     H          0.145064  
         H54       1.0000    0.29140   0.65270   0.99280   Biso      1.000     H          0.109088  
         H55       1.0000    0.54080   0.28770   0.21440   Biso      1.000     H          0.088371  
         H56       1.0000    0.66330   0.56970   0.49050   Biso      1.000     H          0.309518  
         H57       1.0000    0.84540   0.74610   0.62820   Biso      1.000     H          0.147734  
         H58       1.0000    0.91300   0.01020   0.88710   Biso      1.000     H          0.142854  
         H59       1.0000    0.95090   0.57220   0.76390   Biso      1.000     H          0.097941  
         H60       1.0000    0.33480   0.82790   0.53030   Biso      1.000     H          0.103332  
         H61       1.0000    0.31460   0.51220   0.15510   Biso      1.000     H          0.105862  
         H62       1.0000    0.54910   0.07220   0.26390   Biso      1.000     H          0.097941  
         H63       1.0000    0.95920   0.78770   0.71440   Biso      1.000     H          0.088371  
         H64       1.0000    0.17110   0.05910   0.56240   Biso      1.000     H          0.108487  
         H65       1.0000    0.32890   0.55910   0.06240   Biso      1.000     H          0.108487  
         H66       1.0000    0.60230   0.38500   0.54230   Biso      1.000     H          0.142995  
         H67       1.0000    0.98320   0.77840   0.97220   Biso      1.000     H          0.098739  
         H68       1.0000    0.29420   0.73800   0.60200   Biso      1.000     H          0.103342  
         H69       1.0000    0.58700   0.51020   0.38710   Biso      1.000     H          0.142854  
         H70       1.0000    0.20860   0.15270   0.49280   Biso      1.000     H          0.109087  
         H71       1.0000    0.83670   0.06970   0.99050   Biso      1.000     H          0.309518  
         H72       1.0000    0.16520   0.32790   0.03030   Biso      1.000     H          0.103332  
         N1        1.0000    0.00130   0.82830   0.88980   Biso      1.000     N          -0.244719           
         N2        1.0000    0.53210   0.18220   0.24510   Biso      1.000     N          -0.232192           
         N3        1.0000    0.66290   0.52460   0.50750   Biso      1.000     N          -0.460711           
         N4        1.0000    0.73820   0.10650   0.08990   Biso      1.000     N          -0.457746           
         N5        1.0000    0.83710   0.02460   0.00750   Biso      1.000     N          -0.460711           
         N6        1.0000    0.49870   0.32830   0.38980   Biso      1.000     N          -0.244719           
         N7        1.0000    0.50130   0.67170   0.61020   Biso      1.000     N          -0.244717           
         N8        1.0000    0.26180   0.89350   0.91010   Biso      1.000     N          -0.457746           
         N9        1.0000    0.23820   0.39350   0.41010   Biso      1.000     N          -0.457746           
         N10       1.0000    0.46790   0.81780   0.75490   Biso      1.000     N          -0.232192           
         N11       1.0000    0.16290   0.97540   0.99250   Biso      1.000     N          -0.460711           
         N12       1.0000    0.03210   0.31780   0.25490   Biso      1.000     N          -0.232192           
         N13       1.0000    0.99870   0.17170   0.11020   Biso      1.000     N          -0.244718           
         N14       1.0000    0.76180   0.60650   0.58990   Biso      1.000     N          -0.457746           
         N15       1.0000    0.96790   0.68220   0.74510   Biso      1.000     N          -0.232192           
         N16       1.0000    0.33710   0.47540   0.49250   Biso      1.000     N          -0.460711           
         O1        1.0000    0.22450   0.02800   0.90290   Biso      1.000     O          -0.484137           
         O2        1.0000    0.36150   0.29960   0.27290   Biso      1.000     O          -0.593573           
         O3        1.0000    0.13850   0.79960   0.77290   Biso      1.000     O          -0.593572           
         O4        1.0000    0.77550   0.97200   0.09710   Biso      1.000     O          -0.484137           
         O5        1.0000    0.19050   0.72490   0.91770   Biso      1.000     O          -0.595651           
         O6        1.0000    0.30140   0.18740   0.19470   Biso      1.000     O          -0.556273           
         O7        1.0000    0.30950   0.22490   0.41770   Biso      1.000     O          -0.595652           
         O8        1.0000    0.42200   0.13670   0.36600   Biso      1.000     O          -0.541861           
         O9        1.0000    0.07800   0.63670   0.86600   Biso      1.000     O          -0.541861           
         O10       1.0000    0.72450   0.47200   0.59710   Biso      1.000     O          -0.484137           
         O11       1.0000    0.19860   0.68740   0.69470   Biso      1.000     O          -0.556273           
         O12       1.0000    0.80950   0.27510   0.08230   Biso      1.000     O          -0.595651           
         O13       1.0000    0.80140   0.31260   0.30530   Biso      1.000     O          -0.556273           
         O14       1.0000    0.69860   0.81260   0.80530   Biso      1.000     O          -0.556273           
         O15       1.0000    0.57800   0.86330   0.63400   Biso      1.000     O          -0.541862           
         O16       1.0000    0.86150   0.20040   0.22710   Biso      1.000     O          -0.593573           
         O17       1.0000    0.63850   0.70040   0.72710   Biso      1.000     O          -0.593572           
         O18       1.0000    0.27550   0.52800   0.40290   Biso      1.000     O          -0.484137           
         O19       1.0000    0.92200   0.36330   0.13400   Biso      1.000     O          -0.541861           
         O20       1.0000    0.69050   0.77510   0.58230   Biso      1.000     O          -0.595652           
         Zn1       1.0000    0.43163   0.23105   0.32161   Biso      1.000     Zn          0.742675  
         Zn2       1.0000    0.93163   0.26895   0.17839   Biso      1.000     Zn          0.742675  
         Zn3       1.0000    0.06837   0.73105   0.82161   Biso      1.000     Zn          0.742675  
         Zn4       1.0000    0.56837   0.76895   0.67839   Biso      1.000     Zn          0.742675 