
##########################################################################
#               Crystallographic Information Format file
#               Produced by PyCifRW module
#
#  This is a CIF file.  CIF has been adopted by the International
#  Union of Crystallography as the standard for data archiving and
#  transmission.
#
#  For information on this file format, follow the CIF links at
#  http://www.iucr.org
##########################################################################

data_image0

_cell_length_a                          7.8046
_cell_length_b                          21.3806
_cell_length_c                          19.8173
_cell_angle_alpha                       90
_cell_angle_beta                        98.582
_cell_angle_gamma                       90
_symmetry_space_group_name_H-M          'P 1'
_symmetry_int_tables_number             1
loop_
  _symmetry_equiv_pos_as_xyz
         'x, y, z' 
loop_
  _atom_site_label
  _atom_site_occupancy
  _atom_site_fract_x
  _atom_site_fract_y
  _atom_site_fract_z
  _atom_site_thermal_displace_type
  _atom_site_B_iso_or_equiv
  _atom_site_type_symbol
  _atom_site_charge
         C1        1.0000    0.67880   0.17310   0.49610   Biso      1.000     C          0.173931  
         C2        1.0000    0.55410   0.84130   0.03220   Biso      1.000     C          0.113807  
         C3        1.0000    0.54910   0.72900   0.03250   Biso      1.000     C          0.133049  
         C4        1.0000    0.25680   0.81050   0.37670   Biso      1.000     C          0.600795  
         C5        1.0000    0.38070   0.82240   0.44060   Biso      1.000     C          -0.064612           
         C6        1.0000    0.99550   0.46790   0.79810   Biso      1.000     C          0.132194  
         C7        1.0000    0.76280   0.46640   0.70170   Biso      1.000     C          0.111655  
         C8        1.0000    0.88030   0.43460   0.74930   Biso      1.000     C          -0.092094           
         C9        1.0000    0.89310   0.36520   0.74910   Biso      1.000     C          0.586993  
         C10       1.0000    0.32120   0.82690   0.50390   Biso      1.000     C          0.17393   
         C11       1.0000    0.55610   0.82360   0.43760   Biso      1.000     C          -0.122266           
         C12       1.0000    0.44390   0.17640   0.56240   Biso      1.000     C          -0.122269           
         C13       1.0000    0.61930   0.17760   0.55940   Biso      1.000     C          -0.064609           
         C14       1.0000    0.74320   0.18950   0.62330   Biso      1.000     C          0.600794  
         C15       1.0000    0.10690   0.63480   0.25090   Biso      1.000     C          0.586993  
         C16       1.0000    0.45090   0.27100   0.96750   Biso      1.000     C          0.133048  
         C17       1.0000    0.44590   0.15870   0.96780   Biso      1.000     C          0.113806  
         C18       1.0000    0.39770   0.21540   0.93640   Biso      1.000     C          -0.098978           
         C19       1.0000    0.28470   0.21490   0.86860   Biso      1.000     C          0.603351  
         C20       1.0000    0.11970   0.56540   0.25070   Biso      1.000     C          -0.092096           
         C21       1.0000    0.23720   0.53360   0.29830   Biso      1.000     C          0.111657  
         C22       1.0000    0.28470   0.78510   0.86860   Biso      1.000     C          0.603351  
         C23       1.0000    0.00450   0.53210   0.20190   Biso      1.000     C          0.132195  
         C24       1.0000    0.24320   0.31050   0.62330   Biso      1.000     C          0.600794  
         C25       1.0000    0.60230   0.78460   0.06360   Biso      1.000     C          -0.098978           
         C26       1.0000    0.95090   0.22900   0.96750   Biso      1.000     C          0.133049  
         C27       1.0000    0.44390   0.82360   0.56240   Biso      1.000     C          -0.122269           
         C28       1.0000    0.78470   0.71490   0.86860   Biso      1.000     C          0.603351  
         C29       1.0000    0.94390   0.32360   0.56240   Biso      1.000     C          -0.12227  
         C30       1.0000    0.39310   0.13480   0.74910   Biso      1.000     C          0.586993  
         C31       1.0000    0.44590   0.84130   0.96780   Biso      1.000     C          0.113806  
         C32       1.0000    0.38030   0.06540   0.74930   Biso      1.000     C          -0.092095           
         C33       1.0000    0.26280   0.03360   0.70170   Biso      1.000     C          0.111657  
         C34       1.0000    0.49550   0.03210   0.79810   Biso      1.000     C          0.132194  
         C35       1.0000    0.45090   0.72900   0.96750   Biso      1.000     C          0.13305   
         C36       1.0000    0.17880   0.32690   0.49610   Biso      1.000     C          0.173927  
         C37       1.0000    0.49550   0.96790   0.79810   Biso      1.000     C          0.132214  
         C38       1.0000    0.26280   0.96640   0.70170   Biso      1.000     C          0.111656  
         C39       1.0000    0.38030   0.93460   0.74930   Biso      1.000     C          -0.092096           
         C40       1.0000    0.39310   0.86520   0.74910   Biso      1.000     C          0.586993  
         C41       1.0000    0.11930   0.32240   0.55940   Biso      1.000     C          -0.064609           
         C42       1.0000    0.74320   0.81050   0.62330   Biso      1.000     C          0.600794  
         C43       1.0000    0.94390   0.67640   0.56240   Biso      1.000     C          -0.12227  
         C44       1.0000    0.17880   0.67310   0.49610   Biso      1.000     C          0.173929  
         C45       1.0000    0.11930   0.67760   0.55940   Biso      1.000     C          -0.06461  
         C46       1.0000    0.24320   0.68950   0.62330   Biso      1.000     C          0.600793  
         C47       1.0000    0.61930   0.82240   0.55940   Biso      1.000     C          -0.064609           
         C48       1.0000    0.67880   0.82690   0.49610   Biso      1.000     C          0.173929  
         C49       1.0000    0.95090   0.77100   0.96750   Biso      1.000     C          0.133049  
         C50       1.0000    0.94590   0.65870   0.96780   Biso      1.000     C          0.113807  
         C51       1.0000    0.89770   0.71540   0.93640   Biso      1.000     C          -0.098978           
         C52       1.0000    0.71530   0.78510   0.13140   Biso      1.000     C          0.603351  
         C53       1.0000    0.89310   0.63480   0.74910   Biso      1.000     C          0.586993  
         C54       1.0000    0.39770   0.78460   0.93640   Biso      1.000     C          -0.098978           
         C55       1.0000    0.76280   0.53360   0.70170   Biso      1.000     C          0.111656  
         C56       1.0000    0.60230   0.21540   0.06360   Biso      1.000     C          -0.098981           
         C57       1.0000    0.04910   0.22900   0.03250   Biso      1.000     C          0.13305   
         C58       1.0000    0.94590   0.34130   0.96780   Biso      1.000     C          0.113806  
         C59       1.0000    0.75680   0.31050   0.37670   Biso      1.000     C          0.600794  
         C60       1.0000    0.88070   0.32240   0.44060   Biso      1.000     C          -0.064611           
         C61       1.0000    0.82120   0.32690   0.50390   Biso      1.000     C          0.173927  
         C62       1.0000    0.88030   0.56540   0.74930   Biso      1.000     C          -0.092096           
         C63       1.0000    0.55410   0.15870   0.03220   Biso      1.000     C          0.113807  
         C64       1.0000    0.54910   0.27100   0.03250   Biso      1.000     C          0.133053  
         C65       1.0000    0.71530   0.21490   0.13140   Biso      1.000     C          0.603351  
         C66       1.0000    0.50450   0.03210   0.20190   Biso      1.000     C          0.132194  
         C67       1.0000    0.73720   0.03360   0.29830   Biso      1.000     C          0.111655  
         C68       1.0000    0.00450   0.46790   0.20190   Biso      1.000     C          0.132214  
         C69       1.0000    0.23720   0.46640   0.29830   Biso      1.000     C          0.111656  
         C70       1.0000    0.11970   0.43460   0.25070   Biso      1.000     C          -0.092096           
         C71       1.0000    0.10690   0.36520   0.25090   Biso      1.000     C          0.586993  
         C72       1.0000    0.60690   0.13480   0.25090   Biso      1.000     C          0.586993  
         C73       1.0000    0.61970   0.06540   0.25070   Biso      1.000     C          -0.092093           
         C74       1.0000    0.25680   0.18950   0.37670   Biso      1.000     C          0.600794  
         C75       1.0000    0.55610   0.17640   0.43760   Biso      1.000     C          -0.12227  
         C76       1.0000    0.05610   0.32360   0.43760   Biso      1.000     C          -0.122268           
         C77       1.0000    0.05410   0.34130   0.03220   Biso      1.000     C          0.113806  
         C78       1.0000    0.10230   0.28460   0.06360   Biso      1.000     C          -0.098978           
         C79       1.0000    0.21530   0.71490   0.13140   Biso      1.000     C          0.603351  
         C80       1.0000    0.50450   0.96790   0.20190   Biso      1.000     C          0.132214  
         C81       1.0000    0.73720   0.96640   0.29830   Biso      1.000     C          0.111656  
         C82       1.0000    0.61970   0.93460   0.25070   Biso      1.000     C          -0.092096           
         C83       1.0000    0.60690   0.86520   0.25090   Biso      1.000     C          0.586993  
         C84       1.0000    0.99550   0.53210   0.79810   Biso      1.000     C          0.132215  
         C85       1.0000    0.05610   0.67640   0.43760   Biso      1.000     C          -0.122271           
         C86       1.0000    0.38070   0.17760   0.44060   Biso      1.000     C          -0.064608           
         C87       1.0000    0.88070   0.67760   0.44060   Biso      1.000     C          -0.064609           
         C88       1.0000    0.82120   0.67310   0.50390   Biso      1.000     C          0.173928  
         C89       1.0000    0.75680   0.68950   0.37670   Biso      1.000     C          0.600793  
         C90       1.0000    0.78470   0.28510   0.86860   Biso      1.000     C          0.603351  
         C91       1.0000    0.21530   0.28510   0.13140   Biso      1.000     C          0.603351  
         C92       1.0000    0.89770   0.28460   0.93640   Biso      1.000     C          -0.098978           
         C93       1.0000    0.04910   0.77100   0.03250   Biso      1.000     C          0.13305   
         C94       1.0000    0.05410   0.65870   0.03220   Biso      1.000     C          0.113806  
         C95       1.0000    0.10230   0.71540   0.06360   Biso      1.000     C          -0.098978           
         C96       1.0000    0.32120   0.17310   0.50390   Biso      1.000     C          0.17393   
         H1        1.0000    0.07100   0.11620   0.19470   Biso      1.000     H          0.527616  
         H2        1.0000    0.79460   0.89950   0.73520   Biso      1.000     H          0.533817  
         H3        1.0000    0.92900   0.88380   0.80530   Biso      1.000     H          0.527616  
         H4        1.0000    0.90660   0.32210   0.60480   Biso      1.000     H          0.132725  
         H5        1.0000    0.42900   0.38380   0.80530   Biso      1.000     H          0.527615  
         H6        1.0000    0.20540   0.10050   0.26480   Biso      1.000     H          0.533817  
         H7        1.0000    0.29460   0.60050   0.73520   Biso      1.000     H          0.533817  
         H8        1.0000    0.59340   0.17790   0.39520   Biso      1.000     H          0.132724  
         H9        1.0000    0.40660   0.82210   0.60480   Biso      1.000     H          0.132724  
         H10       1.0000    0.79460   0.10050   0.73520   Biso      1.000     H          0.533818  
         H11       1.0000    0.70540   0.39950   0.26480   Biso      1.000     H          0.533817  
         H12       1.0000    0.09340   0.67790   0.39520   Biso      1.000     H          0.132724  
         H13       1.0000    0.59340   0.82210   0.39520   Biso      1.000     H          0.132724  
         H14       1.0000    0.57100   0.38380   0.19470   Biso      1.000     H          0.527615  
         H15       1.0000    0.90660   0.67790   0.60480   Biso      1.000     H          0.132724  
         H16       1.0000    0.29460   0.39950   0.73520   Biso      1.000     H          0.533818  
         H17       1.0000    0.57100   0.61620   0.19470   Biso      1.000     H          0.527616  
         H18       1.0000    0.70540   0.60050   0.26480   Biso      1.000     H          0.533818  
         H19       1.0000    0.42900   0.61620   0.80530   Biso      1.000     H          0.527616  
         H20       1.0000    0.07100   0.88380   0.19470   Biso      1.000     H          0.527616  
         H21       1.0000    0.20540   0.89950   0.26480   Biso      1.000     H          0.533818  
         H22       1.0000    0.09340   0.32210   0.39520   Biso      1.000     H          0.132725  
         H23       1.0000    0.40660   0.17790   0.60480   Biso      1.000     H          0.132724  
         H24       1.0000    0.92900   0.11620   0.80530   Biso      1.000     H          0.527616  
         La1       1.0000    0.98845   0.22323   0.25543   Biso      1.000     La          1.868244  
         La2       1.0000    0.51155   0.27677   0.74457   Biso      1.000     La          1.868244  
         La3       1.0000    0.48845   0.72323   0.25543   Biso      1.000     La          1.868245  
         La4       1.0000    0.98845   0.77677   0.25543   Biso      1.000     La          1.868245  
         La5       1.0000    0.51155   0.72323   0.74457   Biso      1.000     La          1.868245  
         La6       1.0000    0.01155   0.22323   0.74457   Biso      1.000     La          1.868244  
         La7       1.0000    0.48845   0.27677   0.25543   Biso      1.000     La          1.868244  
         La8       1.0000    0.01155   0.77677   0.74457   Biso      1.000     La          1.868245  
         N1        1.0000    0.13600   0.39970   0.05250   Biso      1.000     N          -0.081422           
         N2        1.0000    0.85400   0.05860   0.35170   Biso      1.000     N          -0.104656           
         N3        1.0000    0.65000   0.33860   0.51090   Biso      1.000     N          -0.127898           
         N4        1.0000    0.60200   0.67400   0.05700   Biso      1.000     N          -0.139105           
         N5        1.0000    0.35000   0.33860   0.48910   Biso      1.000     N          -0.127898           
         N6        1.0000    0.63600   0.89970   0.05250   Biso      1.000     N          -0.081422           
         N7        1.0000    0.15000   0.83860   0.51090   Biso      1.000     N          -0.1279   
         N8        1.0000    0.89800   0.17400   0.94300   Biso      1.000     N          -0.139105           
         N9        1.0000    0.62100   0.06100   0.84100   Biso      1.000     N          -0.139503           
         N10       1.0000    0.86400   0.39970   0.94750   Biso      1.000     N          -0.081422           
         N11       1.0000    0.14600   0.05860   0.64830   Biso      1.000     N          -0.104656           
         N12       1.0000    0.87900   0.56100   0.15900   Biso      1.000     N          -0.139504           
         N13       1.0000    0.35400   0.55860   0.35170   Biso      1.000     N          -0.104655           
         N14       1.0000    0.89800   0.82600   0.94300   Biso      1.000     N          -0.139105           
         N15       1.0000    0.39800   0.67400   0.94300   Biso      1.000     N          -0.139105           
         N16       1.0000    0.35000   0.66140   0.48910   Biso      1.000     N          -0.127897           
         N17       1.0000    0.39800   0.32600   0.94300   Biso      1.000     N          -0.139105           
         N18       1.0000    0.12100   0.43900   0.84100   Biso      1.000     N          -0.139503           
         N19       1.0000    0.36400   0.10030   0.94750   Biso      1.000     N          -0.081422           
         N20       1.0000    0.64600   0.44140   0.64830   Biso      1.000     N          -0.104655           
         N21       1.0000    0.85000   0.16140   0.48910   Biso      1.000     N          -0.1279   
         N22       1.0000    0.10200   0.82600   0.05700   Biso      1.000     N          -0.139105           
         N23       1.0000    0.14600   0.94140   0.64830   Biso      1.000     N          -0.104656           
         N24       1.0000    0.37900   0.93900   0.15900   Biso      1.000     N          -0.139505           
         N25       1.0000    0.85400   0.94140   0.35170   Biso      1.000     N          -0.104656           
         N26       1.0000    0.65000   0.66140   0.51090   Biso      1.000     N          -0.127897           
         N27       1.0000    0.60200   0.32600   0.05700   Biso      1.000     N          -0.139105           
         N28       1.0000    0.87900   0.43900   0.15900   Biso      1.000     N          -0.139505           
         N29       1.0000    0.63600   0.10030   0.05250   Biso      1.000     N          -0.081422           
         N30       1.0000    0.35400   0.44140   0.35170   Biso      1.000     N          -0.104655           
         N31       1.0000    0.15000   0.16140   0.51090   Biso      1.000     N          -0.127901           
         N32       1.0000    0.13600   0.60030   0.05250   Biso      1.000     N          -0.081422           
         N33       1.0000    0.86400   0.60030   0.94750   Biso      1.000     N          -0.081422           
         N34       1.0000    0.10200   0.17400   0.05700   Biso      1.000     N          -0.139105           
         N35       1.0000    0.37900   0.06100   0.15900   Biso      1.000     N          -0.139503           
         N36       1.0000    0.85000   0.83860   0.48910   Biso      1.000     N          -0.1279   
         N37       1.0000    0.64600   0.55860   0.64830   Biso      1.000     N          -0.104655           
         N38       1.0000    0.36400   0.89970   0.94750   Biso      1.000     N          -0.081422           
         N39       1.0000    0.12100   0.56100   0.84100   Biso      1.000     N          -0.139505           
         N40       1.0000    0.62100   0.93900   0.84100   Biso      1.000     N          -0.139505           
         O1        1.0000    0.22890   0.33320   0.28610   Biso      1.000     O          -0.639272           
         O2        1.0000    0.02100   0.66130   0.78280   Biso      1.000     O          -0.527885           
         O3        1.0000    0.12770   0.11590   0.23480   Biso      1.000     O          -0.972529           
         O4        1.0000    0.47900   0.83870   0.21720   Biso      1.000     O          -0.527885           
         O5        1.0000    0.62770   0.38410   0.23480   Biso      1.000     O          -0.972529           
         O6        1.0000    0.72890   0.83320   0.28610   Biso      1.000     O          -0.639272           
         O7        1.0000    0.59600   0.68080   0.37540   Biso      1.000     O          -0.542594           
         O8        1.0000    0.32470   0.32720   0.14660   Biso      1.000     O          -0.547973           
         O9        1.0000    0.19850   0.24010   0.17330   Biso      1.000     O          -0.644041           
         O10       1.0000    0.81320   0.71040   0.32410   Biso      1.000     O          -0.673353           
         O11       1.0000    0.19850   0.75990   0.17330   Biso      1.000     O          -0.644041           
         O12       1.0000    0.09600   0.18080   0.37540   Biso      1.000     O          -0.542595           
         O13       1.0000    0.32470   0.67280   0.14660   Biso      1.000     O          -0.547974           
         O14       1.0000    0.81320   0.28960   0.32410   Biso      1.000     O          -0.673352           
         O15       1.0000    0.18680   0.28960   0.67590   Biso      1.000     O          -0.673352           
         O16       1.0000    0.82470   0.17280   0.14660   Biso      1.000     O          -0.547974           
         O17       1.0000    0.69850   0.25990   0.17330   Biso      1.000     O          -0.644041           
         O18       1.0000    0.80150   0.24010   0.82670   Biso      1.000     O          -0.644041           
         O19       1.0000    0.67530   0.32720   0.85340   Biso      1.000     O          -0.547973           
         O20       1.0000    0.31320   0.21040   0.32410   Biso      1.000     O          -0.673351           
         O21       1.0000    0.72890   0.16680   0.28610   Biso      1.000     O          -0.639272           
         O22       1.0000    0.47900   0.16130   0.21720   Biso      1.000     O          -0.527884           
         O23       1.0000    0.97900   0.33870   0.21720   Biso      1.000     O          -0.527885           
         O24       1.0000    0.62770   0.61590   0.23480   Biso      1.000     O          -0.97253  
         O25       1.0000    0.59600   0.31920   0.37540   Biso      1.000     O          -0.542595           
         O26       1.0000    0.40400   0.31920   0.62460   Biso      1.000     O          -0.542595           
         O27       1.0000    0.87230   0.11590   0.76520   Biso      1.000     O          -0.972529           
         O28       1.0000    0.87230   0.88410   0.76520   Biso      1.000     O          -0.972529           
         O29       1.0000    0.52100   0.16130   0.78280   Biso      1.000     O          -0.527885           
         O30       1.0000    0.52100   0.83870   0.78280   Biso      1.000     O          -0.527885           
         O31       1.0000    0.27110   0.83320   0.71390   Biso      1.000     O          -0.639272           
         O32       1.0000    0.40400   0.68080   0.62460   Biso      1.000     O          -0.542594           
         O33       1.0000    0.18680   0.71040   0.67590   Biso      1.000     O          -0.673353           
         O34       1.0000    0.12770   0.88410   0.23480   Biso      1.000     O          -0.972529           
         O35       1.0000    0.80150   0.75990   0.82670   Biso      1.000     O          -0.644041           
         O36       1.0000    0.67530   0.67280   0.85340   Biso      1.000     O          -0.547974           
         O37       1.0000    0.82470   0.82720   0.14660   Biso      1.000     O          -0.547974           
         O38       1.0000    0.69850   0.74010   0.17330   Biso      1.000     O          -0.644041           
         O39       1.0000    0.37230   0.61590   0.76520   Biso      1.000     O          -0.97253  
         O40       1.0000    0.27110   0.16680   0.71390   Biso      1.000     O          -0.639272           
         O41       1.0000    0.17530   0.82720   0.85340   Biso      1.000     O          -0.547974           
         O42       1.0000    0.30150   0.74010   0.82670   Biso      1.000     O          -0.644041           
         O43       1.0000    0.31320   0.78960   0.32410   Biso      1.000     O          -0.673352           
         O44       1.0000    0.09600   0.81920   0.37540   Biso      1.000     O          -0.542595           
         O45       1.0000    0.68680   0.78960   0.67590   Biso      1.000     O          -0.673352           
         O46       1.0000    0.90400   0.81920   0.62460   Biso      1.000     O          -0.542595           
         O47       1.0000    0.37230   0.38410   0.76520   Biso      1.000     O          -0.97253  
         O48       1.0000    0.77110   0.33320   0.71390   Biso      1.000     O          -0.639272           
         O49       1.0000    0.90400   0.18080   0.62460   Biso      1.000     O          -0.542595           
         O50       1.0000    0.22890   0.66680   0.28610   Biso      1.000     O          -0.639272           
         O51       1.0000    0.97900   0.66130   0.21720   Biso      1.000     O          -0.527885           
         O52       1.0000    0.68680   0.21040   0.67590   Biso      1.000     O          -0.673351           
         O53       1.0000    0.30150   0.25990   0.82670   Biso      1.000     O          -0.644041           
         O54       1.0000    0.17530   0.17280   0.85340   Biso      1.000     O          -0.547974           
         O55       1.0000    0.77110   0.66680   0.71390   Biso      1.000     O          -0.639272           
         O56       1.0000    0.02100   0.33870   0.78280   Biso      1.000     O          -0.527884 