
##########################################################################
#               Crystallographic Information Format file
#               Produced by PyCifRW module
#
#  This is a CIF file.  CIF has been adopted by the International
#  Union of Crystallography as the standard for data archiving and
#  transmission.
#
#  For information on this file format, follow the CIF links at
#  http://www.iucr.org
##########################################################################

data_image0

_cell_length_a                          12.1005
_cell_length_b                          18.2101
_cell_length_c                          18.2101
_cell_angle_alpha                       64.7602
_cell_angle_beta                        77.2029
_cell_angle_gamma                       102.797
_symmetry_space_group_name_H-M          'P 1'
_symmetry_int_tables_number             1
loop_
  _symmetry_equiv_pos_as_xyz
         'x, y, z' 
loop_
  _atom_site_label
  _atom_site_occupancy
  _atom_site_fract_x
  _atom_site_fract_y
  _atom_site_fract_z
  _atom_site_thermal_displace_type
  _atom_site_B_iso_or_equiv
  _atom_site_type_symbol
  _atom_site_charge
         C1        1.0000    0.23352   0.82787   0.55621   Biso      1.000     C          -0.217763           
         C2        1.0000    0.54674   0.18799   0.60257   Biso      1.000     C          -0.190527           
         C3        1.0000    0.92458   0.29222   0.88896   Biso      1.000     C          0.139087  
         C4        1.0000    0.48978   0.31580   0.56280   Biso      1.000     C          0.222255  
         C5        1.0000    0.27674   0.82243   0.48411   Biso      1.000     C          0.140234  
         C6        1.0000    0.76035   0.85153   0.77119   Biso      1.000     C          -0.100274           
         C7        1.0000    0.16838   0.91482   0.42188   Biso      1.000     C          0.064221  
         C8        1.0000    0.72034   0.92897   0.14095   Biso      1.000     C          0.049698  
         C9        1.0000    0.36764   0.18118   0.70778   Biso      1.000     C          0.13843   
         C10       1.0000    0.83162   0.08518   0.57812   Biso      1.000     C          0.064221  
         C11       1.0000    0.14931   0.60257   0.20944   Biso      1.000     C          -0.187912           
         C12       1.0000    0.59435   0.38408   0.17213   Biso      1.000     C          -0.214589           
         C13       1.0000    0.92667   0.64355   0.84654   Biso      1.000     C          0.340948  
         C14       1.0000    0.13582   0.46473   0.22007   Biso      1.000     C          0.012246  
         C15       1.0000    0.67109   0.31520   0.46473   Biso      1.000     C          0.013113  
         C16       1.0000    0.58193   0.75384   0.77325   Biso      1.000     C          -0.035831           
         C17       1.0000    0.62826   0.28111   0.13243   Biso      1.000     C          -0.205185           
         C18       1.0000    0.74354   0.58517   0.29985   Biso      1.000     C          -0.561909           
         C19       1.0000    0.78973   0.55621   0.61592   Biso      1.000     C          -0.211588           
         C20       1.0000    0.23965   0.14847   0.22881   Biso      1.000     C          -0.100276           
         C21       1.0000    0.74018   0.89611   0.88447   Biso      1.000     C          -0.22543  
         C22       1.0000    0.83121   0.85034   0.19810   Biso      1.000     C          0.051596  
         C23       1.0000    0.15593   0.78058   0.10389   Biso      1.000     C          -0.225186           
         C24       1.0000    0.09118   0.62272   0.14847   Biso      1.000     C          -0.099282           
         C25       1.0000    0.35518   0.77325   0.47291   Biso      1.000     C          -0.0332   
         C26       1.0000    0.65722   0.78217   0.55021   Biso      1.000     C          -0.221608           
         C27       1.0000    0.82809   0.47291   0.75384   Biso      1.000     C          -0.036955           
         C28       1.0000    0.64411   0.77993   0.68480   Biso      1.000     C          0.013764  
         C29       1.0000    0.23721   0.15697   0.35974   Biso      1.000     C          0.072917  
         C30       1.0000    0.15837   0.11498   0.58517   Biso      1.000     C          -0.558776           
         C31       1.0000    0.46846   0.22881   0.62272   Biso      1.000     C          -0.099243           
         C32       1.0000    0.77321   0.84654   0.50991   Biso      1.000     C          0.341116  
         C33       1.0000    0.25940   0.19724   0.72099   Biso      1.000     C          -0.188157           
         C34       1.0000    0.72326   0.17757   0.51589   Biso      1.000     C          0.140218  
         C35       1.0000    0.90882   0.37728   0.85153   Biso      1.000     C          -0.099288           
         C36       1.0000    0.16879   0.14966   0.80190   Biso      1.000     C          0.051597  
         C37       1.0000    0.45431   0.69346   0.82243   Biso      1.000     C          0.14119   
         C38       1.0000    0.40565   0.61592   0.82787   Biso      1.000     C          -0.214577           
         C39       1.0000    0.62465   0.88447   0.21942   Biso      1.000     C          -0.225733           
         C40       1.0000    0.06216   0.08177   0.19724   Biso      1.000     C          -0.188784           
         C41       1.0000    0.40629   0.24979   0.36472   Biso      1.000     C          -0.108321           
         C42       1.0000    0.20863   0.06992   0.07103   Biso      1.000     C          0.048664  
         C43       1.0000    0.25646   0.41483   0.70015   Biso      1.000     C          -0.561911           
         C44       1.0000    0.94742   0.43720   0.87860   Biso      1.000     C          0.217345  
         C45       1.0000    0.32891   0.68480   0.53527   Biso      1.000     C          0.013116  
         C46       1.0000    0.95661   0.70015   0.88502   Biso      1.000     C          -0.563475           
         C47       1.0000    0.81354   0.88896   0.81882   Biso      1.000     C          0.137513  
         C48       1.0000    0.74060   0.80276   0.27901   Biso      1.000     C          -0.188153           
         C49       1.0000    0.02931   0.19810   0.95156   Biso      1.000     C          0.052361  
         C50       1.0000    0.17398   0.12140   0.31580   Biso      1.000     C          0.219838  
         C51       1.0000    0.37535   0.11553   0.78058   Biso      1.000     C          -0.225734           
         C52       1.0000    0.64482   0.22675   0.52709   Biso      1.000     C          -0.03319  
         C53       1.0000    0.76279   0.84303   0.64026   Biso      1.000     C          0.072921  
         C54       1.0000    0.79257   0.44979   0.33238   Biso      1.000     C          -0.219277           
         C55       1.0000    0.25982   0.10389   0.11553   Biso      1.000     C          -0.225432           
         C56       1.0000    0.35589   0.22007   0.31520   Biso      1.000     C          0.013767  
         C57       1.0000    0.79137   0.93008   0.92897   Biso      1.000     C          0.048674  
         C58       1.0000    0.41807   0.24616   0.22675   Biso      1.000     C          -0.035829           
         C59       1.0000    0.64125   0.79056   0.81201   Biso      1.000     C          -0.189073           
         C60       1.0000    0.71587   0.43545   0.12354   Biso      1.000     C          0.103647  
         C61       1.0000    0.15650   0.38549   0.24979   Biso      1.000     C          -0.106497           
         C62       1.0000    0.17191   0.52709   0.24616   Biso      1.000     C          -0.036949           
         C63       1.0000    0.86129   0.14095   0.93008   Biso      1.000     C          0.049146  
         C64       1.0000    0.01913   0.04844   0.14966   Biso      1.000     C          0.053891  
         C65       1.0000    0.84163   0.88502   0.41483   Biso      1.000     C          -0.558775           
         C66       1.0000    0.51022   0.68420   0.43720   Biso      1.000     C          0.222255  
         C67       1.0000    0.05258   0.56280   0.12140   Biso      1.000     C          0.217352  
         C68       1.0000    0.85069   0.39743   0.79056   Biso      1.000     C          -0.187899           
         C69       1.0000    0.22899   0.63528   0.61451   Biso      1.000     C          -0.108647           
         C70       1.0000    0.97069   0.80190   0.04844   Biso      1.000     C          0.052368  
         C71       1.0000    0.27966   0.07103   0.85905   Biso      1.000     C          0.049698  
         C72       1.0000    0.76648   0.17213   0.44379   Biso      1.000     C          -0.217747           
         C73       1.0000    0.45326   0.81201   0.39743   Biso      1.000     C          -0.190519           
         C74       1.0000    0.84350   0.61451   0.75021   Biso      1.000     C          -0.106499           
         C75       1.0000    0.77101   0.36472   0.38549   Biso      1.000     C          -0.108631           
         C76       1.0000    0.63236   0.81882   0.29222   Biso      1.000     C          0.138427  
         C77       1.0000    0.93784   0.91823   0.80276   Biso      1.000     C          -0.188781           
         C78       1.0000    0.59695   0.35974   0.48329   Biso      1.000     C          0.072087  
         C79       1.0000    0.40305   0.64026   0.51671   Biso      1.000     C          0.072087  
         C80       1.0000    0.71958   0.55899   0.56455   Biso      1.000     C          0.103114  
         C81       1.0000    0.34715   0.58646   0.28111   Biso      1.000     C          -0.202317           
         C82       1.0000    0.40974   0.57812   0.33670   Biso      1.000     C          0.058716  
         C83       1.0000    0.13871   0.85905   0.06992   Biso      1.000     C          0.049154  
         C84       1.0000    0.28312   0.50991   0.64355   Biso      1.000     C          0.341694  
         C85       1.0000    0.53154   0.77119   0.37728   Biso      1.000     C          -0.099243           
         C86       1.0000    0.65285   0.41354   0.71889   Biso      1.000     C          -0.202318           
         C87       1.0000    0.16059   0.87646   0.55899   Biso      1.000     C          0.106064  
         C88       1.0000    0.71688   0.49009   0.35645   Biso      1.000     C          0.341694  
         C89       1.0000    0.23931   0.86757   0.41354   Biso      1.000     C          -0.205195           
         C90       1.0000    0.07333   0.35645   0.15346   Biso      1.000     C          0.340951  
         C91       1.0000    0.59371   0.75021   0.63528   Biso      1.000     C          -0.1083   
         C92       1.0000    0.23915   0.51589   0.30654   Biso      1.000     C          0.139857  
         C93       1.0000    0.28413   0.56455   0.87646   Biso      1.000     C          0.103647  
         C94       1.0000    0.76069   0.13243   0.58646   Biso      1.000     C          -0.205193           
         C95       1.0000    0.83941   0.12354   0.44101   Biso      1.000     C          0.106063  
         C96       1.0000    0.86418   0.53527   0.77993   Biso      1.000     C          0.012245  
         C97       1.0000    0.74644   0.33670   0.08518   Biso      1.000     C          0.064235  
         C98       1.0000    0.34278   0.21783   0.44979   Biso      1.000     C          -0.221596           
         C99       1.0000    0.98039   0.72099   0.08177   Biso      1.000     C          -0.191299           
         C100      1.0000    0.28042   0.44101   0.43545   Biso      1.000     C          0.103111  
         C101      1.0000    0.12495   0.33238   0.21783   Biso      1.000     C          -0.219529           
         C102      1.0000    0.22679   0.15346   0.49009   Biso      1.000     C          0.341111  
         C103      1.0000    0.59026   0.42188   0.66330   Biso      1.000     C          0.058716  
         C104      1.0000    0.04339   0.29985   0.11498   Biso      1.000     C          -0.563478           
         C105      1.0000    0.07542   0.70778   0.11104   Biso      1.000     C          0.139085  
         C106      1.0000    0.87505   0.66762   0.78217   Biso      1.000     C          -0.219535           
         C107      1.0000    0.01961   0.27901   0.91823   Biso      1.000     C          -0.191303           
         C108      1.0000    0.20743   0.55021   0.66762   Biso      1.000     C          -0.219262           
         C109      1.0000    0.18646   0.11104   0.18118   Biso      1.000     C          0.137513  
         C110      1.0000    0.84407   0.21942   0.89611   Biso      1.000     C          -0.225191           
         C111      1.0000    0.76085   0.48411   0.69346   Biso      1.000     C          0.139871  
         C112      1.0000    0.82602   0.87860   0.68420   Biso      1.000     C          0.219849  
         C113      1.0000    0.98087   0.95156   0.85034   Biso      1.000     C          0.053899  
         C114      1.0000    0.37174   0.71889   0.86757   Biso      1.000     C          -0.205184           
         C115      1.0000    0.54569   0.30654   0.17757   Biso      1.000     C          0.141201  
         C116      1.0000    0.21027   0.44379   0.38408   Biso      1.000     C          -0.211574           
         C117      1.0000    0.08024   0.48329   0.15697   Biso      1.000     C          0.074467  
         C118      1.0000    0.35875   0.20944   0.18799   Biso      1.000     C          -0.18907  
         C119      1.0000    0.25356   0.66330   0.91482   Biso      1.000     C          0.064236  
         C120      1.0000    0.91976   0.51671   0.84303   Biso      1.000     C          0.074459  
         Cd1       1.0000    0.00000   0.50000   0.00000   Biso      1.000     Cd          0.738757  
         Cd2       1.0000    0.00000   0.00000   0.00000   Biso      1.000     Cd          0.584596  
         Cd3       1.0000    0.00000   0.00000   0.50000   Biso      1.000     Cd          0.737689  
         Cd4       1.0000    0.50000   0.50000   0.50000   Biso      1.000     Cd          0.740057  
         H1        1.0000    0.91950   0.92690   0.39830   Biso      1.000     H          0.169807  
         H2        1.0000    0.07650   0.32500   0.91520   Biso      1.000     H          0.129517  
         H3        1.0000    0.80790   0.63050   0.70830   Biso      1.000     H          0.107527  
         H4        1.0000    0.53080   0.13060   0.64340   Biso      1.000     H          0.113348  
         H5        1.0000    0.86770   0.12240   0.38980   Biso      1.000     H          0.088022  
         H6        1.0000    0.25300   0.79860   0.60470   Biso      1.000     H          0.128513  
         H7        1.0000    0.47890   0.62450   0.32020   Biso      1.000     H          0.093299  
         H8        1.0000    0.14220   0.51840   0.72020   Biso      1.000     H          0.122963  
         H9        1.0000    0.90630   0.80850   0.02960   Biso      1.000     H          0.085284  
         H10       1.0000    0.40020   0.22600   0.13060   Biso      1.000     H          0.112604  
         H11       1.0000    0.20330   0.08710   0.61810   Biso      1.000     H          0.175093  
         H12       1.0000    0.01280   0.75690   0.83980   Biso      1.000     H          0.172691  
         H13       1.0000    0.25590   0.40330   0.75690   Biso      1.000     H          0.171312  
         H14       1.0000    0.08050   0.07310   0.60170   Biso      1.000     H          0.169809  
         H15       1.0000    0.79910   0.32020   0.05530   Biso      1.000     H          0.091245  
         H16       1.0000    0.14560   0.94470   0.37550   Biso      1.000     H          0.092982  
         H17       1.0000    0.99260   0.67480   0.92690   Biso      1.000     H          0.17063   
         H18       1.0000    0.73710   0.13500   0.63730   Biso      1.000     H          0.128535  
         H19       1.0000    0.17420   0.64340   0.22600   Biso      1.000     H          0.112989  
         H20       1.0000    0.06410   0.97040   0.83810   Biso      1.000     H          0.083625  
         H21       1.0000    0.82140   0.61810   0.29480   Biso      1.000     H          0.178226  
         H22       1.0000    0.86240   0.72020   0.76140   Biso      1.000     H          0.121814  
         H23       1.0000    0.74250   0.61020   0.51220   Biso      1.000     H          0.087917  
         H24       1.0000    0.73960   0.93330   0.97260   Biso      1.000     H          0.076473  
         H25       1.0000    0.00740   0.32520   0.07310   Biso      1.000     H          0.170629  
         H26       1.0000    0.54560   0.40330   0.20140   Biso      1.000     H          0.127038  
         H27       1.0000    0.22140   0.77620   0.12210   Biso      1.000     H          0.121895  
         H28       1.0000    0.26290   0.86500   0.36270   Biso      1.000     H          0.128536  
         H29       1.0000    0.44520   0.10170   0.77620   Biso      1.000     H          0.121411  
         H30       1.0000    0.79670   0.91290   0.38190   Biso      1.000     H          0.175091  
         H31       1.0000    0.75150   0.75980   0.32500   Biso      1.000     H          0.128208  
         H32       1.0000    0.59980   0.77400   0.86940   Biso      1.000     H          0.112603  
         H33       1.0000    0.92350   0.67500   0.08480   Biso      1.000     H          0.129514  
         H34       1.0000    0.90220   0.83810   0.19150   Biso      1.000     H          0.084801  
         H35       1.0000    0.17860   0.38190   0.70520   Biso      1.000     H          0.178226  
         H36       1.0000    0.00830   0.08480   0.24020   Biso      1.000     H          0.127801  
         H37       1.0000    0.88380   0.70520   0.91290   Biso      1.000     H          0.178827  
         H38       1.0000    0.85260   0.83980   0.40330   Biso      1.000     H          0.172855  
         H39       1.0000    0.82580   0.35660   0.77400   Biso      1.000     H          0.11299   
         H40       1.0000    0.85780   0.48160   0.27980   Biso      1.000     H          0.122964  
         H41       1.0000    0.14230   0.39530   0.40330   Biso      1.000     H          0.12622   
         H42       1.0000    0.80630   0.09410   0.93330   Biso      1.000     H          0.075994  
         H43       1.0000    0.13230   0.87760   0.61020   Biso      1.000     H          0.088022  
         H44       1.0000    0.13760   0.27980   0.23860   Biso      1.000     H          0.121811  
         H45       1.0000    0.74410   0.59670   0.24310   Biso      1.000     H          0.171312  
         H46       1.0000    0.55480   0.89830   0.22380   Biso      1.000     H          0.121412  
         H47       1.0000    0.62560   0.36270   0.77230   Biso      1.000     H          0.129059  
         H48       1.0000    0.19370   0.90590   0.06670   Biso      1.000     H          0.075991  
         H49       1.0000    0.17740   0.66120   0.63050   Biso      1.000     H          0.109981  
         H50       1.0000    0.85770   0.60470   0.59670   Biso      1.000     H          0.126221  
         H51       1.0000    0.51620   0.70830   0.66120   Biso      1.000     H          0.108763  
         H52       1.0000    0.65650   0.87790   0.89830   Biso      1.000     H          0.122937  
         H53       1.0000    0.31780   0.39830   0.67480   Biso      1.000     H          0.170329  
         H54       1.0000    0.34350   0.12210   0.10170   Biso      1.000     H          0.122938  
         H55       1.0000    0.60210   0.22770   0.13500   Biso      1.000     H          0.129015  
         H56       1.0000    0.46920   0.86940   0.35660   Biso      1.000     H          0.113348  
         H57       1.0000    0.52110   0.37550   0.67980   Biso      1.000     H          0.093299  
         H58       1.0000    0.20090   0.67980   0.94470   Biso      1.000     H          0.091245  
         H59       1.0000    0.62380   0.76140   0.51840   Biso      1.000     H          0.124535  
         H60       1.0000    0.74700   0.20140   0.39530   Biso      1.000     H          0.128511  
         H61       1.0000    0.99170   0.91520   0.75980   Biso      1.000     H          0.127797  
         H62       1.0000    0.37440   0.63730   0.22770   Biso      1.000     H          0.129059  
         H63       1.0000    0.85440   0.05530   0.62450   Biso      1.000     H          0.092982  
         H64       1.0000    0.82260   0.33880   0.36950   Biso      1.000     H          0.109981  
         H65       1.0000    0.71220   0.97260   0.09410   Biso      1.000     H          0.075862  
         H66       1.0000    0.26040   0.06670   0.02740   Biso      1.000     H          0.076476  
         H67       1.0000    0.48380   0.29170   0.33880   Biso      1.000     H          0.108767  
         H68       1.0000    0.19210   0.36950   0.29170   Biso      1.000     H          0.107524  
         H69       1.0000    0.93590   0.02960   0.16190   Biso      1.000     H          0.083628  
         H70       1.0000    0.68220   0.60170   0.32520   Biso      1.000     H          0.170329  
         H71       1.0000    0.11620   0.29480   0.08710   Biso      1.000     H          0.178826  
         H72       1.0000    0.37620   0.23860   0.48160   Biso      1.000     H          0.124536  
         H73       1.0000    0.45440   0.59670   0.79860   Biso      1.000     H          0.127036  
         H74       1.0000    0.98720   0.24310   0.16020   Biso      1.000     H          0.17269   
         H75       1.0000    0.09780   0.16190   0.80850   Biso      1.000     H          0.084802  
         H76       1.0000    0.74530   0.48780   0.12240   Biso      1.000     H          0.08793   
         H77       1.0000    0.25750   0.38980   0.48780   Biso      1.000     H          0.087916  
         H78       1.0000    0.39790   0.77230   0.86500   Biso      1.000     H          0.129015  
         H79       1.0000    0.24850   0.24020   0.67500   Biso      1.000     H          0.128209  
         H80       1.0000    0.14740   0.16020   0.59670   Biso      1.000     H          0.172856  
         H81       1.0000    0.77860   0.22380   0.87790   Biso      1.000     H          0.121899  
         H82       1.0000    0.25470   0.51220   0.87760   Biso      1.000     H          0.087929  
         H83       1.0000    0.28780   0.02740   0.90590   Biso      1.000     H          0.075862  
         H84       1.0000    0.09370   0.19150   0.97040   Biso      1.000     H          0.085286  
         N1        1.0000    0.82376   0.87586   0.55414   Biso      1.000     N          -0.341017           
         N2        1.0000    0.94790   0.57000   0.87586   Biso      1.000     N          -0.341091           
         N3        1.0000    0.20992   0.58468   0.91978   Biso      1.000     N          -0.226177           
         N4        1.0000    0.79008   0.41532   0.08022   Biso      1.000     N          -0.226177           
         N5        1.0000    0.05210   0.43000   0.12414   Biso      1.000     N          -0.3411   
         N6        1.0000    0.62210   0.44586   0.43000   Biso      1.000     N          -0.342799           
         N7        1.0000    0.17687   0.08635   0.87215   Biso      1.000     N          -0.249163           
         N8        1.0000    0.82313   0.91365   0.12785   Biso      1.000     N          -0.249166           
         N9        1.0000    0.37476   0.50446   0.41532   Biso      1.000     N          -0.225419           
         N10       1.0000    0.90948   0.95850   0.91365   Biso      1.000     N          -0.248568           
         N11       1.0000    0.12970   0.91978   0.49554   Biso      1.000     N          -0.22767  
         N12       1.0000    0.17624   0.12414   0.44586   Biso      1.000     N          -0.341011           
         N13       1.0000    0.62524   0.49554   0.58468   Biso      1.000     N          -0.22542  
         N14       1.0000    0.09052   0.04150   0.08635   Biso      1.000     N          -0.248558           
         N15       1.0000    0.37790   0.55414   0.57000   Biso      1.000     N          -0.342801           
         N16       1.0000    0.95098   0.12785   0.95850   Biso      1.000     N          -0.249019           
         N17       1.0000    0.04902   0.87215   0.04150   Biso      1.000     N          -0.249029           
         N18       1.0000    0.87030   0.08022   0.50446   Biso      1.000     N          -0.227669           
         O1        1.0000    0.06432   0.06654   0.35679   Biso      1.000     O          -0.509484           
         O2        1.0000    0.99778   0.57667   0.06654   Biso      1.000     O          -0.50814  
         O3        1.0000    0.42111   0.35679   0.57667   Biso      1.000     O          -0.51186  
         O4        1.0000    0.57889   0.64321   0.42333   Biso      1.000     O          -0.511861           
         O5        1.0000    0.00222   0.42333   0.93346   Biso      1.000     O          -0.508133           
         O6        1.0000    0.93568   0.93346   0.64321   Biso      1.000     O          -0.509491 