
##########################################################################
#               Crystallographic Information Format file
#               Produced by PyCifRW module
#
#  This is a CIF file.  CIF has been adopted by the International
#  Union of Crystallography as the standard for data archiving and
#  transmission.
#
#  For information on this file format, follow the CIF links at
#  http://www.iucr.org
##########################################################################

data_image0

_cell_length_a                          12.9731
_cell_length_b                          12.9731
_cell_length_c                          14.781
_cell_angle_alpha                       83.84
_cell_angle_beta                        83.84
_cell_angle_gamma                       62.2252
_symmetry_space_group_name_H-M          'P 1'
_symmetry_int_tables_number             1
loop_
  _symmetry_equiv_pos_as_xyz
         'x, y, z' 
loop_
  _atom_site_label
  _atom_site_occupancy
  _atom_site_fract_x
  _atom_site_fract_y
  _atom_site_fract_z
  _atom_site_thermal_displace_type
  _atom_site_B_iso_or_equiv
  _atom_site_type_symbol
  _atom_site_charge
         C1        1.0000    0.73390   0.64910   0.67700   Biso      1.000     C          -0.024825999999999997         
         C2        1.0000    0.85390   0.56190   0.36290   Biso      1.000     C          0.693358  
         C3        1.0000    0.60140   0.58160   0.24250   Biso      1.000     C          0.16642   
         C4        1.0000    0.39820   0.24060   0.20240   Biso      1.000     C          -0.020534999999999998         
         C5        1.0000    0.60180   0.75940   0.79760   Biso      1.000     C          -0.020534           
         C6        1.0000    0.16800   0.36640   0.39310   Biso      1.000     C          0.670275  
         C7        1.0000    0.69637   0.73737   0.73650   Biso      1.000     C          -0.11807100000000001          
         C8        1.0000    0.47900   0.46720   0.25330   Biso      1.000     C          -0.08639  
         C9        1.0000    0.41840   0.39860   0.25750   Biso      1.000     C          0.166446  
         C10       1.0000    0.73737   0.69637   0.23650   Biso      1.000     C          -0.118074           
         C11       1.0000    0.67820   0.57980   0.68140   Biso      1.000     C          -0.153275           
         C12       1.0000    0.24060   0.39820   0.70240   Biso      1.000     C          -0.020534999999999998         
         C13       1.0000    0.36640   0.16800   0.89310   Biso      1.000     C          0.670275  
         C14       1.0000    0.46720   0.47900   0.75330   Biso      1.000     C          -0.08639  
         C15       1.0000    0.52100   0.53280   0.74670   Biso      1.000     C          -0.086173           
         C16       1.0000    0.54240   0.69380   0.79930   Biso      1.000     C          -0.123215           
         C17       1.0000    0.26610   0.35090   0.32300   Biso      1.000     C          -0.024828           
         C18       1.0000    0.39860   0.41840   0.75750   Biso      1.000     C          0.166446  
         C19       1.0000    0.57980   0.67820   0.18140   Biso      1.000     C          -0.153275           
         C20       1.0000    0.83200   0.63360   0.60690   Biso      1.000     C          0.670275  
         C21       1.0000    0.14610   0.43810   0.63710   Biso      1.000     C          0.693358  
         C22       1.0000    0.75940   0.60180   0.29760   Biso      1.000     C          -0.020531           
         C23       1.0000    0.26263   0.30363   0.76350   Biso      1.000     C          -0.118072           
         C24       1.0000    0.63360   0.83200   0.10690   Biso      1.000     C          0.670275  
         C25       1.0000    0.69380   0.54240   0.29930   Biso      1.000     C          -0.123215           
         C26       1.0000    0.42020   0.32180   0.81860   Biso      1.000     C          -0.153273           
         C27       1.0000    0.45760   0.30620   0.20070   Biso      1.000     C          -0.12321300000000002          
         C28       1.0000    0.56190   0.85390   0.86290   Biso      1.000     C          0.693358  
         C29       1.0000    0.30363   0.26263   0.26350   Biso      1.000     C          -0.118072           
         C30       1.0000    0.53280   0.52100   0.24670   Biso      1.000     C          -0.086172           
         C31       1.0000    0.35090   0.26610   0.82300   Biso      1.000     C          -0.024828           
         C32       1.0000    0.30620   0.45760   0.70070   Biso      1.000     C          -0.12321300000000002          
         C33       1.0000    0.64910   0.73390   0.17700   Biso      1.000     C          -0.024825999999999997         
         C34       1.0000    0.58160   0.60140   0.74250   Biso      1.000     C          0.16642   
         C35       1.0000    0.43810   0.14610   0.13710   Biso      1.000     C          0.693357  
         C36       1.0000    0.32180   0.42020   0.31860   Biso      1.000     C          -0.153273           
         H1        1.0000    0.78200   0.73560   0.23520   Biso      1.000     H          0.13026   
         H2        1.0000    0.47610   0.71130   0.83850   Biso      1.000     H          0.13533299999999998           
         H3        1.0000    0.73560   0.78200   0.73520   Biso      1.000     H          0.13026   
         H4        1.0000    0.21800   0.26440   0.76480   Biso      1.000     H          0.13026   
         H5        1.0000    0.28870   0.52390   0.66150   Biso      1.000     H          0.13533399999999998           
         H6        1.0000    0.51850   0.70530   0.14340   Biso      1.000     H          0.129969  
         H7        1.0000    0.70530   0.51850   0.64340   Biso      1.000     H          0.129969  
         H8        1.0000    0.71130   0.47610   0.33850   Biso      1.000     H          0.13533299999999998           
         H9        1.0000    0.48150   0.29470   0.85660   Biso      1.000     H          0.12997   
         H10       1.0000    0.29470   0.48150   0.35660   Biso      1.000     H          0.12997   
         H11       1.0000    0.26440   0.21800   0.26480   Biso      1.000     H          0.13026   
         H12       1.0000    0.52390   0.28870   0.16150   Biso      1.000     H          0.13533399999999998           
         N1        1.0000    0.82990   0.27590   0.46740   Biso      1.000     N          0.7763800000000001  
         N2        1.0000    0.72410   0.17010   0.03260   Biso      1.000     N          0.7763800000000001  
         N3        1.0000    0.27590   0.82990   0.96740   Biso      1.000     N          0.7763800000000001  
         N4        1.0000    0.17010   0.72410   0.53260   Biso      1.000     N          0.7763800000000001  
         O1        1.0000    0.35490   0.79330   0.02250   Biso      1.000     O          -0.5737300000000001           
         O2        1.0000    0.89519   0.45859   0.39600   Biso      1.000     O          -0.636483           
         O3        1.0000    0.79330   0.35490   0.52250   Biso      1.000     O          -0.5737300000000001           
         O4        1.0000    0.45859   0.89519   0.89600   Biso      1.000     O          -0.636483           
         O5        1.0000    0.23850   0.74390   0.56980   Biso      1.000     O          -0.364902           
         O6        1.0000    0.85751   0.71471   0.58960   Biso      1.000     O          -0.60655  
         O7        1.0000    0.20670   0.64510   0.47750   Biso      1.000     O          -0.5737300000000001           
         O8        1.0000    0.64510   0.20670   0.97750   Biso      1.000     O          -0.5737300000000001           
         O9        1.0000    0.63567   0.88547   0.87920   Biso      1.000     O          -0.717601           
         O10       1.0000    0.10481   0.54141   0.60400   Biso      1.000     O          -0.636483           
         O11       1.0000    0.88358   0.54078   0.56640   Biso      1.000     O          -0.761727           
         O12       1.0000    0.11642   0.45922   0.43360   Biso      1.000     O          -0.761727           
         O13       1.0000    0.22210   0.93790   0.95140   Biso      1.000     O          -0.559284           
         O14       1.0000    0.28529   0.14249   0.91040   Biso      1.000     O          -0.60655  
         O15       1.0000    0.45922   0.11642   0.93360   Biso      1.000     O          -0.761727           
         O16       1.0000    0.93790   0.22210   0.45140   Biso      1.000     O          -0.559284           
         O17       1.0000    0.11453   0.36433   0.62080   Biso      1.000     O          -0.717601           
         O18       1.0000    0.25610   0.76150   0.93020   Biso      1.000     O          -0.36490100000000003          
         O19       1.0000    0.76150   0.25610   0.43020   Biso      1.000     O          -0.36490100000000003          
         O20       1.0000    0.74390   0.23850   0.06980   Biso      1.000     O          -0.364902           
         O21       1.0000    0.14249   0.28529   0.41040   Biso      1.000     O          -0.60655  
         O22       1.0000    0.88547   0.63567   0.37920   Biso      1.000     O          -0.717601           
         O23       1.0000    0.77790   0.06210   0.04860   Biso      1.000     O          -0.559284           
         O24       1.0000    0.06210   0.77790   0.54860   Biso      1.000     O          -0.559284           
         O25       1.0000    0.71471   0.85751   0.08960   Biso      1.000     O          -0.60655  
         O26       1.0000    0.36433   0.11453   0.12080   Biso      1.000     O          -0.717601           
         O27       1.0000    0.54141   0.10481   0.10400   Biso      1.000     O          -0.636483           
         O28       1.0000    0.54078   0.88358   0.06640   Biso      1.000     O          -0.761727           
         Tb1       1.0000    0.35008   0.98823   0.02724   Biso      1.000     Tb          2.044469  
         Tb2       1.0000    0.64992   0.01177   0.97276   Biso      1.000     Tb          2.044469  
         Tb3       1.0000    0.98823   0.35008   0.52724   Biso      1.000     Tb          2.044469  
         Tb4       1.0000    0.01177   0.64992   0.47276   Biso      1.000     Tb          2.044469 