
##########################################################################
#               Crystallographic Information Format file
#               Produced by PyCifRW module
#
#  This is a CIF file.  CIF has been adopted by the International
#  Union of Crystallography as the standard for data archiving and
#  transmission.
#
#  For information on this file format, follow the CIF links at
#  http://www.iucr.org
##########################################################################

data_image0

_cell_length_a                          13.0177
_cell_length_b                          13.0177
_cell_length_c                          15.002
_cell_angle_alpha                       83.6956
_cell_angle_beta                        83.6956
_cell_angle_gamma                       61.732
_symmetry_space_group_name_H-M          'P 1'
_symmetry_int_tables_number             1
loop_
  _symmetry_equiv_pos_as_xyz
         'x, y, z' 
loop_
  _atom_site_label
  _atom_site_occupancy
  _atom_site_fract_x
  _atom_site_fract_y
  _atom_site_fract_z
  _atom_site_thermal_displace_type
  _atom_site_B_iso_or_equiv
  _atom_site_type_symbol
  _atom_site_charge
         C1        1.0000    0.54240   0.69240   0.79940   Biso      1.000     C          -0.124523           
         C2        1.0000    0.82970   0.63750   0.60640   Biso      1.000     C          0.607222  
         C3        1.0000    0.52080   0.53340   0.74720   Biso      1.000     C          -0.036691           
         C4        1.0000    0.47920   0.46660   0.25280   Biso      1.000     C          -0.038609           
         C5        1.0000    0.39820   0.41800   0.75810   Biso      1.000     C          0.162328  
         C6        1.0000    0.41940   0.32320   0.81990   Biso      1.000     C          -0.145527           
         C7        1.0000    0.69240   0.54240   0.29940   Biso      1.000     C          -0.123766           
         C8        1.0000    0.53340   0.52080   0.24720   Biso      1.000     C          -0.038218           
         C9        1.0000    0.34980   0.26740   0.82400   Biso      1.000     C          -0.006389           
         C10       1.0000    0.41800   0.39820   0.25810   Biso      1.000     C          0.161777  
         C11       1.0000    0.30760   0.45760   0.70060   Biso      1.000     C          -0.123131           
         C12       1.0000    0.24240   0.39820   0.70180   Biso      1.000     C          -0.008947           
         C13       1.0000    0.45760   0.30760   0.20060   Biso      1.000     C          -0.125865           
         C14       1.0000    0.73670   0.69610   0.23650   Biso      1.000     C          -0.089512           
         C15       1.0000    0.39820   0.24240   0.20180   Biso      1.000     C          -0.007018           
         C16       1.0000    0.56260   0.85300   0.86240   Biso      1.000     C          0.624239  
         C17       1.0000    0.46660   0.47920   0.75280   Biso      1.000     C          -0.037124           
         C18       1.0000    0.30390   0.26330   0.26350   Biso      1.000     C          -0.089256           
         C19       1.0000    0.67680   0.58060   0.68010   Biso      1.000     C          -0.145487           
         C20       1.0000    0.43740   0.14700   0.13760   Biso      1.000     C          0.623792  
         C21       1.0000    0.26740   0.34980   0.32400   Biso      1.000     C          -0.008152           
         C22       1.0000    0.65020   0.73260   0.17600   Biso      1.000     C          -0.006621           
         C23       1.0000    0.17030   0.36250   0.39360   Biso      1.000     C          0.607409  
         C24       1.0000    0.58200   0.60180   0.74190   Biso      1.000     C          0.162365  
         C25       1.0000    0.63750   0.82970   0.10640   Biso      1.000     C          0.60716   
         C26       1.0000    0.36250   0.17030   0.89360   Biso      1.000     C          0.606821  
         C27       1.0000    0.58060   0.67680   0.18010   Biso      1.000     C          -0.14554  
         C28       1.0000    0.75760   0.60180   0.29820   Biso      1.000     C          -0.009413           
         C29       1.0000    0.14700   0.43740   0.63760   Biso      1.000     C          0.623709  
         C30       1.0000    0.73260   0.65020   0.67600   Biso      1.000     C          -0.007114           
         C31       1.0000    0.26330   0.30390   0.76350   Biso      1.000     C          -0.08761  
         C32       1.0000    0.69610   0.73670   0.73650   Biso      1.000     C          -0.08847  
         C33       1.0000    0.60180   0.75760   0.79820   Biso      1.000     C          -0.00749  
         C34       1.0000    0.32320   0.41940   0.31990   Biso      1.000     C          -0.144086           
         C35       1.0000    0.85300   0.56260   0.36240   Biso      1.000     C          0.623897  
         C36       1.0000    0.60180   0.58200   0.24190   Biso      1.000     C          0.161693  
         Eu1       1.0000    0.98978   0.34902   0.52719   Biso      1.000     Eu          1.365092  
         Eu2       1.0000    0.34902   0.98978   0.02719   Biso      1.000     Eu          1.366124  
         Eu3       1.0000    0.01022   0.65098   0.47281   Biso      1.000     Eu          1.36561   
         Eu4       1.0000    0.65098   0.01022   0.97281   Biso      1.000     Eu          1.366585  
         H1        1.0000    0.21910   0.26470   0.76450   Biso      1.000     H          0.132849  
         H2        1.0000    0.78090   0.73530   0.23550   Biso      1.000     H          0.132542  
         H3        1.0000    0.70280   0.52040   0.64170   Biso      1.000     H          0.136984  
         H4        1.0000    0.70910   0.47650   0.33830   Biso      1.000     H          0.133677  
         H5        1.0000    0.29090   0.52350   0.66170   Biso      1.000     H          0.134097  
         H6        1.0000    0.29720   0.47960   0.35830   Biso      1.000     H          0.13661   
         H7        1.0000    0.47960   0.29720   0.85830   Biso      1.000     H          0.13715   
         H8        1.0000    0.47650   0.70910   0.83830   Biso      1.000     H          0.134127  
         H9        1.0000    0.73530   0.78090   0.73550   Biso      1.000     H          0.132738  
         H10       1.0000    0.26470   0.21910   0.26450   Biso      1.000     H          0.132667  
         H11       1.0000    0.52040   0.70280   0.14170   Biso      1.000     H          0.136876  
         H12       1.0000    0.52350   0.29090   0.16170   Biso      1.000     H          0.13398   
         N1        1.0000    0.17130   0.72510   0.53010   Biso      1.000     N          0.724142  
         N2        1.0000    0.27490   0.82870   0.96990   Biso      1.000     N          0.723782  
         N3        1.0000    0.82870   0.27490   0.46990   Biso      1.000     N          0.724053  
         N4        1.0000    0.72510   0.17130   0.03010   Biso      1.000     N          0.72383   
         O1        1.0000    0.28120   0.14560   0.90860   Biso      1.000     O          -0.527446           
         O2        1.0000    0.88260   0.54460   0.56540   Biso      1.000     O          -0.635255           
         O3        1.0000    0.35310   0.79410   0.02320   Biso      1.000     O          -0.434551           
         O4        1.0000    0.64690   0.20590   0.97680   Biso      1.000     O          -0.434611           
         O5        1.0000    0.36440   0.11700   0.12140   Biso      1.000     O          -0.572893           
         O6        1.0000    0.63560   0.88300   0.87860   Biso      1.000     O          -0.571715           
         O7        1.0000    0.24030   0.74090   0.56800   Biso      1.000     O          -0.319962           
         O8        1.0000    0.45540   0.11740   0.93460   Biso      1.000     O          -0.633627           
         O9        1.0000    0.20590   0.64690   0.47680   Biso      1.000     O          -0.435664           
         O10       1.0000    0.54460   0.88260   0.06540   Biso      1.000     O          -0.636149           
         O11       1.0000    0.54140   0.10640   0.10320   Biso      1.000     O          -0.565049           
         O12       1.0000    0.85440   0.71880   0.59140   Biso      1.000     O          -0.526534           
         O13       1.0000    0.79410   0.35310   0.52320   Biso      1.000     O          -0.43543  
         O14       1.0000    0.88300   0.63560   0.37860   Biso      1.000     O          -0.57168  
         O15       1.0000    0.93850   0.21870   0.45340   Biso      1.000     O          -0.424404           
         O16       1.0000    0.25910   0.75970   0.93200   Biso      1.000     O          -0.319312           
         O17       1.0000    0.11700   0.36440   0.62140   Biso      1.000     O          -0.569677           
         O18       1.0000    0.78130   0.06150   0.04660   Biso      1.000     O          -0.425061           
         O19       1.0000    0.14560   0.28120   0.40860   Biso      1.000     O          -0.528792           
         O20       1.0000    0.45860   0.89360   0.89680   Biso      1.000     O          -0.565753           
         O21       1.0000    0.71880   0.85440   0.09140   Biso      1.000     O          -0.52595  
         O22       1.0000    0.74090   0.24030   0.06800   Biso      1.000     O          -0.318993           
         O23       1.0000    0.21870   0.93850   0.95340   Biso      1.000     O          -0.423455           
         O24       1.0000    0.89360   0.45860   0.39680   Biso      1.000     O          -0.560047           
         O25       1.0000    0.06150   0.78130   0.54660   Biso      1.000     O          -0.424846           
         O26       1.0000    0.75970   0.25910   0.43200   Biso      1.000     O          -0.319478           
         O27       1.0000    0.11740   0.45540   0.43460   Biso      1.000     O          -0.633955           
         O28       1.0000    0.10640   0.54140   0.60320   Biso      1.000     O          -0.56108 