
##########################################################################
#               Crystallographic Information Format file
#               Produced by PyCifRW module
#
#  This is a CIF file.  CIF has been adopted by the International
#  Union of Crystallography as the standard for data archiving and
#  transmission.
#
#  For information on this file format, follow the CIF links at
#  http://www.iucr.org
##########################################################################

data_image0

_cell_length_a                          12.9406
_cell_length_b                          12.9406
_cell_length_c                          14.639
_cell_angle_alpha                       83.932
_cell_angle_beta                        83.932
_cell_angle_gamma                       61.6245
_symmetry_space_group_name_H-M          'P 1'
_symmetry_int_tables_number             1
loop_
  _symmetry_equiv_pos_as_xyz
         'x, y, z' 
loop_
  _atom_site_label
  _atom_site_occupancy
  _atom_site_fract_x
  _atom_site_fract_y
  _atom_site_fract_z
  _atom_site_thermal_displace_type
  _atom_site_B_iso_or_equiv
  _atom_site_type_symbol
  _atom_site_charge
         C1        1.0000    0.62920   0.83060   0.10680   Biso      1.000     C          0.6801189999999999  
         C2        1.0000    0.67290   0.58290   0.68030   Biso      1.000     C          -0.15504300000000001          
         C3        1.0000    0.73100   0.64980   0.67650   Biso      1.000     C          -0.022591999999999998         
         C4        1.0000    0.23980   0.40020   0.70130   Biso      1.000     C          -0.01901  
         C5        1.0000    0.64980   0.73100   0.17650   Biso      1.000     C          -0.022598           
         C6        1.0000    0.69330   0.73810   0.73700   Biso      1.000     C          -0.11989200000000001          
         C7        1.0000    0.48450   0.46030   0.25370   Biso      1.000     C          -0.093609           
         C8        1.0000    0.30340   0.46120   0.69860   Biso      1.000     C          -0.1238   
         C9        1.0000    0.32710   0.41710   0.31970   Biso      1.000     C          -0.15504  
         C10       1.0000    0.39460   0.42220   0.75820   Biso      1.000     C          0.16755499999999998           
         C11       1.0000    0.85710   0.56050   0.36460   Biso      1.000     C          0.698569  
         C12       1.0000    0.37080   0.16940   0.89320   Biso      1.000     C          0.6801189999999999  
         C13       1.0000    0.14290   0.43950   0.63540   Biso      1.000     C          0.698569  
         C14       1.0000    0.76020   0.59980   0.29870   Biso      1.000     C          -0.019008           
         C15       1.0000    0.56050   0.85710   0.86460   Biso      1.000     C          0.6985680000000001  
         C16       1.0000    0.26190   0.30670   0.76300   Biso      1.000     C          -0.11988199999999999          
         C17       1.0000    0.59980   0.76020   0.79870   Biso      1.000     C          -0.018997           
         C18       1.0000    0.73810   0.69330   0.23700   Biso      1.000     C          -0.119881           
         C19       1.0000    0.35020   0.26900   0.82350   Biso      1.000     C          -0.022601           
         C20       1.0000    0.58290   0.67290   0.18030   Biso      1.000     C          -0.155038           
         C21       1.0000    0.46120   0.30340   0.19860   Biso      1.000     C          -0.123803           
         C22       1.0000    0.60540   0.57780   0.24180   Biso      1.000     C          0.167534  
         C23       1.0000    0.53970   0.51550   0.24630   Biso      1.000     C          -0.093404           
         C24       1.0000    0.43950   0.14290   0.13540   Biso      1.000     C          0.698569  
         C25       1.0000    0.53880   0.69660   0.80140   Biso      1.000     C          -0.123805           
         C26       1.0000    0.46030   0.48450   0.75370   Biso      1.000     C          -0.09360800000000001          
         C27       1.0000    0.83060   0.62920   0.60680   Biso      1.000     C          0.680118  
         C28       1.0000    0.16940   0.37080   0.39320   Biso      1.000     C          0.680118  
         C29       1.0000    0.40020   0.23980   0.20130   Biso      1.000     C          -0.019007           
         C30       1.0000    0.30670   0.26190   0.26300   Biso      1.000     C          -0.11988299999999999          
         C31       1.0000    0.41710   0.32710   0.81970   Biso      1.000     C          -0.155031           
         C32       1.0000    0.42220   0.39460   0.25820   Biso      1.000     C          0.16755899999999999           
         C33       1.0000    0.51550   0.53970   0.74630   Biso      1.000     C          -0.093404           
         C34       1.0000    0.69660   0.53880   0.30140   Biso      1.000     C          -0.123803           
         C35       1.0000    0.26900   0.35020   0.32350   Biso      1.000     C          -0.022595           
         C36       1.0000    0.57780   0.60540   0.74180   Biso      1.000     C          0.167535  
         Er1       1.0000    0.34832   0.98972   0.02755   Biso      1.000     Er          2.047854  
         Er2       1.0000    0.65168   0.01028   0.97245   Biso      1.000     Er          2.047854  
         Er3       1.0000    0.01028   0.65168   0.47245   Biso      1.000     Er          2.0478549999999998  
         Er4       1.0000    0.98972   0.34832   0.52755   Biso      1.000     Er          2.0478549999999998  
         H1        1.0000    0.78290   0.73230   0.23540   Biso      1.000     H          0.127855  
         H2        1.0000    0.21710   0.26770   0.76460   Biso      1.000     H          0.127855  
         H3        1.0000    0.69830   0.52230   0.64090   Biso      1.000     H          0.13161099999999998           
         H4        1.0000    0.47320   0.71400   0.84190   Biso      1.000     H          0.136758  
         H5        1.0000    0.73230   0.78290   0.73540   Biso      1.000     H          0.127855  
         H6        1.0000    0.30170   0.47770   0.35910   Biso      1.000     H          0.13161199999999998           
         H7        1.0000    0.52680   0.28600   0.15810   Biso      1.000     H          0.136759  
         H8        1.0000    0.26770   0.21710   0.26460   Biso      1.000     H          0.127855  
         H9        1.0000    0.28600   0.52680   0.65810   Biso      1.000     H          0.136759  
         H10       1.0000    0.47770   0.30170   0.85910   Biso      1.000     H          0.13161199999999998           
         H11       1.0000    0.71400   0.47320   0.34190   Biso      1.000     H          0.136758  
         H12       1.0000    0.52230   0.69830   0.14090   Biso      1.000     H          0.13161099999999998           
         N1        1.0000    0.27190   0.83590   0.96680   Biso      1.000     N          0.7817350000000001  
         N2        1.0000    0.83590   0.27190   0.46680   Biso      1.000     N          0.7817350000000001  
         N3        1.0000    0.16410   0.72810   0.53320   Biso      1.000     N          0.7817350000000001  
         N4        1.0000    0.72810   0.16410   0.03320   Biso      1.000     N          0.7817350000000001  
         O1        1.0000    0.25450   0.76850   0.92720   Biso      1.000     O          -0.35180700000000004          
         O2        1.0000    0.23150   0.74550   0.57280   Biso      1.000     O          -0.351808           
         O3        1.0000    0.71240   0.85480   0.08620   Biso      1.000     O          -0.63068  
         O4        1.0000    0.54370   0.10030   0.10320   Biso      1.000     O          -0.639892           
         O5        1.0000    0.63620   0.88440   0.88230   Biso      1.000     O          -0.715225           
         O6        1.0000    0.36380   0.11560   0.11770   Biso      1.000     O          -0.715225           
         O7        1.0000    0.94610   0.21990   0.45110   Biso      1.000     O          -0.574416           
         O8        1.0000    0.79800   0.35220   0.52130   Biso      1.000     O          -0.5764560000000001           
         O9        1.0000    0.20200   0.64780   0.47870   Biso      1.000     O          -0.5764560000000001           
         O10       1.0000    0.35220   0.79800   0.02130   Biso      1.000     O          -0.576457           
         O11       1.0000    0.05390   0.78010   0.54890   Biso      1.000     O          -0.574416           
         O12       1.0000    0.78010   0.05390   0.04890   Biso      1.000     O          -0.574416           
         O13       1.0000    0.88440   0.63620   0.38230   Biso      1.000     O          -0.715225           
         O14       1.0000    0.53610   0.88190   0.06830   Biso      1.000     O          -0.749737           
         O15       1.0000    0.14520   0.28760   0.41380   Biso      1.000     O          -0.630681           
         O16       1.0000    0.64780   0.20200   0.97870   Biso      1.000     O          -0.576457           
         O17       1.0000    0.11810   0.46390   0.43170   Biso      1.000     O          -0.749738           
         O18       1.0000    0.85480   0.71240   0.58620   Biso      1.000     O          -0.63068  
         O19       1.0000    0.28760   0.14520   0.91380   Biso      1.000     O          -0.63068  
         O20       1.0000    0.74550   0.23150   0.07280   Biso      1.000     O          -0.351808           
         O21       1.0000    0.11560   0.36380   0.61770   Biso      1.000     O          -0.715225           
         O22       1.0000    0.46390   0.11810   0.93170   Biso      1.000     O          -0.749738           
         O23       1.0000    0.21990   0.94610   0.95110   Biso      1.000     O          -0.574416           
         O24       1.0000    0.10030   0.54370   0.60320   Biso      1.000     O          -0.639892           
         O25       1.0000    0.89970   0.45630   0.39680   Biso      1.000     O          -0.639891           
         O26       1.0000    0.76850   0.25450   0.42720   Biso      1.000     O          -0.35180700000000004          
         O27       1.0000    0.45630   0.89970   0.89680   Biso      1.000     O          -0.639891           
         O28       1.0000    0.88190   0.53610   0.56830   Biso      1.000     O          -0.749737 