
##########################################################################
#               Crystallographic Information Format file
#               Produced by PyCifRW module
#
#  This is a CIF file.  CIF has been adopted by the International
#  Union of Crystallography as the standard for data archiving and
#  transmission.
#
#  For information on this file format, follow the CIF links at
#  http://www.iucr.org
##########################################################################

data_image0

_cell_length_a                          11.52
_cell_length_b                          7.632
_cell_length_c                          7.039
_cell_angle_alpha                       88.93
_cell_angle_beta                        109.71
_cell_angle_gamma                       82.81
_symmetry_space_group_name_H-M          'P 1'
_symmetry_int_tables_number             1
loop_
  _symmetry_equiv_pos_as_xyz
         'x, y, z' 
loop_
  _atom_site_label
  _atom_site_occupancy
  _atom_site_fract_x
  _atom_site_fract_y
  _atom_site_fract_z
  _atom_site_thermal_displace_type
  _atom_site_B_iso_or_equiv
  _atom_site_type_symbol
  _atom_site_charge
         C1        1.0000    0.96910   0.67660   0.66210   Biso      1.000     C          0.05194   
         C2        1.0000    0.03090   0.32340   0.33790   Biso      1.000     C          0.051940999999999994          
         C3        1.0000    0.95140   0.33580   0.64580   Biso      1.000     C          0.046049  
         C4        1.0000    0.78690   0.02500   0.21380   Biso      1.000     C          -0.001268           
         C5        1.0000    0.65460   0.01850   0.20110   Biso      1.000     C          -0.186382           
         C6        1.0000    0.64200   0.01710   0.41190   Biso      1.000     C          -0.147033           
         C7        1.0000    0.50840   0.00290   0.39740   Biso      1.000     C          -0.15313  
         C8        1.0000    0.04860   0.66420   0.35420   Biso      1.000     C          0.046049  
         C9        1.0000    0.21310   0.97500   0.78620   Biso      1.000     C          -0.001267           
         C10       1.0000    0.49160   0.99710   0.60260   Biso      1.000     C          -0.15313  
         C11       1.0000    0.35800   0.98290   0.58810   Biso      1.000     C          -0.147033           
         C12       1.0000    0.34540   0.98150   0.79890   Biso      1.000     C          -0.186381           
         Cd1       1.0000    0.00000   0.00000   0.00000   Biso      1.000     Cd          0.8760020000000001  
         H1        1.0000    0.33096   0.86212   0.51864   Biso      1.000     H          0.08834600000000001           
         H2        1.0000    0.70734   0.90586   0.50500   Biso      1.000     H          0.09112200000000001           
         H3        1.0000    0.29266   0.09414   0.49500   Biso      1.000     H          0.09112200000000001           
         H4        1.0000    0.18470   0.85257   0.72376   Biso      1.000     H          0.090727  
         H5        1.0000    0.15367   0.08451   0.68712   Biso      1.000     H          0.09000599999999999           
         H6        1.0000    0.25187   0.86970   0.07808   Biso      1.000     H          0.26753899999999997           
         H7        1.0000    0.23413   0.10193   0.05102   Biso      1.000     H          0.26731900000000003           
         H8        1.0000    0.37674   0.09952   0.87115   Biso      1.000     H          0.077291  
         H9        1.0000    0.44748   0.11565   0.30590   Biso      1.000     H          0.07521599999999999           
         H10       1.0000    0.40483   0.86700   0.89032   Biso      1.000     H          0.074796  
         H11       1.0000    0.66904   0.13788   0.48136   Biso      1.000     H          0.08834600000000001           
         H12       1.0000    0.62326   0.90048   0.12885   Biso      1.000     H          0.077291  
         H13       1.0000    0.59517   0.13300   0.10968   Biso      1.000     H          0.074795  
         H14       1.0000    0.84633   0.91549   0.31288   Biso      1.000     H          0.09000599999999999           
         H15       1.0000    0.81530   0.14743   0.27624   Biso      1.000     H          0.090728  
         H16       1.0000    0.76587   0.89807   0.94898   Biso      1.000     H          0.26732   
         H17       1.0000    0.74813   0.13030   0.92192   Biso      1.000     H          0.26753899999999997           
         H18       1.0000    0.55252   0.88435   0.69410   Biso      1.000     H          0.075215  
         H19       1.0000    0.51870   0.11642   0.67576   Biso      1.000     H          0.07376100000000001           
         H20       1.0000    0.48130   0.88358   0.32424   Biso      1.000     H          0.07376100000000001           
         N1        1.0000    0.04660   0.21740   0.23570   Biso      1.000     N          -0.375202           
         N2        1.0000    0.95340   0.78260   0.76430   Biso      1.000     N          -0.375202           
         N3        1.0000    0.07230   0.76730   0.25850   Biso      1.000     N          -0.386231           
         N4        1.0000    0.80400   0.01440   0.01510   Biso      1.000     N          -0.526964           
         N5        1.0000    0.92770   0.23270   0.74150   Biso      1.000     N          -0.386231           
         N6        1.0000    0.19600   0.98560   0.98490   Biso      1.000     N          -0.526964           
         Ni1       1.0000    0.00000   0.50000   0.50000   Biso      1.000     Ni          0.088193 