
##########################################################################
#               Crystallographic Information Format file
#               Produced by PyCifRW module
#
#  This is a CIF file.  CIF has been adopted by the International
#  Union of Crystallography as the standard for data archiving and
#  transmission.
#
#  For information on this file format, follow the CIF links at
#  http://www.iucr.org
##########################################################################

data_image0

_cell_length_a                          10.7535
_cell_length_b                          12.5101
_cell_length_c                          12.5101
_cell_angle_alpha                       91.9626
_cell_angle_beta                        113.771
_cell_angle_gamma                       113.771
_symmetry_space_group_name_H-M          'P 1'
_symmetry_int_tables_number             1
loop_
  _symmetry_equiv_pos_as_xyz
         'x, y, z' 
loop_
  _atom_site_label
  _atom_site_occupancy
  _atom_site_fract_x
  _atom_site_fract_y
  _atom_site_fract_z
  _atom_site_thermal_displace_type
  _atom_site_B_iso_or_equiv
  _atom_site_type_symbol
  _atom_site_charge
         C1        1.0000    0.42630   0.22370   0.99810   Biso      1.000     C          0.707587  
         C2        1.0000    0.32370   0.49160   0.13620   Biso      1.000     C          0.6869930000000001  
         C3        1.0000    0.99240   0.33410   0.94190   Biso      1.000     C          -0.248629           
         C4        1.0000    0.32370   0.13620   0.49160   Biso      1.000     C          0.6869930000000001  
         C5        1.0000    0.82330   0.89490   0.29710   Biso      1.000     C          0.631038  
         C6        1.0000    0.81500   0.57560   0.84280   Biso      1.000     C          -0.256202           
         C7        1.0000    0.98520   0.91740   0.79200   Biso      1.000     C          0.489184  
         C8        1.0000    0.18500   0.15720   0.42440   Biso      1.000     C          -0.256202           
         C9        1.0000    0.01480   0.20800   0.08260   Biso      1.000     C          0.489184  
         C10       1.0000    0.00760   0.66590   0.05810   Biso      1.000     C          -0.248629           
         C11       1.0000    0.57370   0.77630   0.00190   Biso      1.000     C          0.707587  
         C12       1.0000    0.01480   0.08260   0.20800   Biso      1.000     C          0.489184  
         C13       1.0000    0.98520   0.79200   0.91740   Biso      1.000     C          0.489184  
         C14       1.0000    0.81500   0.84280   0.57560   Biso      1.000     C          -0.256202           
         C15       1.0000    0.17670   0.10510   0.70290   Biso      1.000     C          0.631038  
         C16       1.0000    0.67630   0.50840   0.86380   Biso      1.000     C          0.6869930000000001  
         C17       1.0000    0.18500   0.42440   0.15720   Biso      1.000     C          -0.256202           
         C18       1.0000    0.14920   0.98970   0.98970   Biso      1.000     C          0.47388100000000005           
         C19       1.0000    0.42630   0.99810   0.22370   Biso      1.000     C          0.707587  
         C20       1.0000    0.67630   0.86380   0.50840   Biso      1.000     C          0.6869930000000001  
         C21       1.0000    0.00760   0.05810   0.66590   Biso      1.000     C          -0.248629           
         C22       1.0000    0.32920   0.20220   0.06240   Biso      1.000     C          -0.269136           
         C23       1.0000    0.32920   0.06240   0.20220   Biso      1.000     C          -0.269136           
         C24       1.0000    0.82330   0.29710   0.89490   Biso      1.000     C          0.631038  
         C25       1.0000    0.67080   0.79780   0.93760   Biso      1.000     C          -0.269136           
         C26       1.0000    0.57370   0.00190   0.77630   Biso      1.000     C          0.707587  
         C27       1.0000    0.99240   0.94190   0.33410   Biso      1.000     C          -0.248629           
         C28       1.0000    0.85080   0.01030   0.01030   Biso      1.000     C          0.47388100000000005           
         C29       1.0000    0.67080   0.93760   0.79780   Biso      1.000     C          -0.269136           
         C30       1.0000    0.17670   0.70290   0.10510   Biso      1.000     C          0.631038  
         H1        1.0000    0.85560   0.52090   0.83450   Biso      1.000     H          0.148798  
         H2        1.0000    0.24470   0.01640   0.21900   Biso      1.000     H          0.159378  
         H3        1.0000    0.95590   0.58240   0.05940   Biso      1.000     H          0.144109  
         H4        1.0000    0.24470   0.21900   0.01640   Biso      1.000     H          0.159378  
         H5        1.0000    0.04410   0.41760   0.94060   Biso      1.000     H          0.144109  
         H6        1.0000    0.04410   0.94060   0.41760   Biso      1.000     H          0.144109  
         H7        1.0000    0.75530   0.98360   0.78100   Biso      1.000     H          0.159378  
         H8        1.0000    0.78240   0.76760   0.60000   Biso      1.000     H          0.155349  
         H9        1.0000    0.99470   0.71370   0.11170   Biso      1.000     H          0.137845  
         H10       1.0000    0.78240   0.60000   0.76760   Biso      1.000     H          0.155349  
         H11       1.0000    0.61000   0.74080   0.86020   Biso      1.000     H          0.147296  
         H12       1.0000    0.21760   0.23240   0.40000   Biso      1.000     H          0.155349  
         H13       1.0000    0.39000   0.13980   0.25920   Biso      1.000     H          0.147296  
         H14       1.0000    0.95590   0.05940   0.58240   Biso      1.000     H          0.144109  
         H15       1.0000    0.39000   0.25920   0.13980   Biso      1.000     H          0.147295  
         H16       1.0000    0.85560   0.83450   0.52090   Biso      1.000     H          0.148798  
         H17       1.0000    0.21760   0.40000   0.23240   Biso      1.000     H          0.155349  
         H18       1.0000    0.99470   0.11170   0.71370   Biso      1.000     H          0.137845  
         H19       1.0000    0.00530   0.28630   0.88830   Biso      1.000     H          0.137845  
         H20       1.0000    0.75530   0.78100   0.98360   Biso      1.000     H          0.159378  
         H21       1.0000    0.00530   0.88830   0.28630   Biso      1.000     H          0.137845  
         H22       1.0000    0.61000   0.86020   0.74080   Biso      1.000     H          0.147295  
         H23       1.0000    0.14440   0.16550   0.47910   Biso      1.000     H          0.148798  
         H24       1.0000    0.14440   0.47910   0.16550   Biso      1.000     H          0.148798  
         N1        1.0000    0.90310   0.98624   0.11916   Biso      1.000     N          -0.533083           
         N2        1.0000    0.93530   0.93682   0.68018   Biso      1.000     N          -0.063928           
         N3        1.0000    0.06470   0.31982   0.06318   Biso      1.000     N          -0.063928           
         N4        1.0000    0.07660   0.19600   0.19600   Biso      1.000     N          -0.567832           
         N5        1.0000    0.90310   0.11916   0.98624   Biso      1.000     N          -0.533083           
         N6        1.0000    0.09690   0.01376   0.88084   Biso      1.000     N          -0.533083           
         N7        1.0000    0.26760   0.08180   0.08180   Biso      1.000     N          -0.07749400000000001          
         N8        1.0000    0.09690   0.88084   0.01376   Biso      1.000     N          -0.533083           
         N9        1.0000    0.93530   0.68018   0.93682   Biso      1.000     N          -0.063928           
         N10       1.0000    0.73240   0.91820   0.91820   Biso      1.000     N          -0.07749400000000001          
         N11       1.0000    0.06470   0.06318   0.31982   Biso      1.000     N          -0.063928           
         N12       1.0000    0.92340   0.80400   0.80400   Biso      1.000     N          -0.567832           
         O1        1.0000    0.48630   0.97889   0.32511   Biso      1.000     O          -0.5952390000000001           
         O2        1.0000    0.66990   0.55563   0.94997   Biso      1.000     O          -0.560296           
         O3        1.0000    0.74130   0.26337   0.78323   Biso      1.000     O          -0.660697           
         O4        1.0000    0.23280   0.69589   0.03509   Biso      1.000     O          -0.667466           
         O5        1.0000    0.76720   0.96491   0.30411   Biso      1.000     O          -0.667466           
         O6        1.0000    0.44130   0.95629   0.13827   Biso      1.000     O          -0.670431           
         O7        1.0000    0.42210   0.20941   0.59079   Biso      1.000     O          -0.662784           
         O8        1.0000    0.33010   0.05003   0.44437   Biso      1.000     O          -0.560296           
         O9        1.0000    0.55870   0.04371   0.86173   Biso      1.000     O          -0.670431           
         O10       1.0000    0.42210   0.59079   0.20941   Biso      1.000     O          -0.662784           
         O11       1.0000    0.48630   0.32511   0.97889   Biso      1.000     O          -0.5952390000000001           
         O12       1.0000    0.23280   0.03509   0.69589   Biso      1.000     O          -0.667466           
         O13       1.0000    0.25870   0.73663   0.21677   Biso      1.000     O          -0.660697           
         O14       1.0000    0.76720   0.30411   0.96491   Biso      1.000     O          -0.667466           
         O15       1.0000    0.51370   0.67489   0.02111   Biso      1.000     O          -0.5952390000000001           
         O16       1.0000    0.55870   0.86173   0.04371   Biso      1.000     O          -0.670431           
         O17       1.0000    0.74130   0.78323   0.26337   Biso      1.000     O          -0.660697           
         O18       1.0000    0.44130   0.13827   0.95629   Biso      1.000     O          -0.670431           
         O19       1.0000    0.57790   0.40921   0.79059   Biso      1.000     O          -0.662784           
         O20       1.0000    0.57790   0.79059   0.40921   Biso      1.000     O          -0.662784           
         O21       1.0000    0.51370   0.02111   0.67489   Biso      1.000     O          -0.5952390000000001           
         O22       1.0000    0.33010   0.44437   0.05003   Biso      1.000     O          -0.560296           
         O23       1.0000    0.25870   0.21677   0.73663   Biso      1.000     O          -0.660697           
         O24       1.0000    0.66990   0.94997   0.55563   Biso      1.000     O          -0.560296           
         Tb1       1.0000    0.50000   0.20908   0.79092   Biso      1.000     Tb          2.048971  
         Tb2       1.0000    0.50000   0.79092   0.20908   Biso      1.000     Tb          2.048971  
         Zn1       1.0000    0.50000   0.00000   0.50000   Biso      1.000     Zn          1.086871  
         Zn2       1.0000    0.50000   0.50000   0.00000   Biso      1.000     Zn          1.086871  
         Zn3       1.0000    0.50000   0.00000   0.00000   Biso      1.000     Zn          1.1924649999999999 