
##########################################################################
#               Crystallographic Information Format file
#               Produced by PyCifRW module
#
#  This is a CIF file.  CIF has been adopted by the International
#  Union of Crystallography as the standard for data archiving and
#  transmission.
#
#  For information on this file format, follow the CIF links at
#  http://www.iucr.org
##########################################################################

data_image0

_cell_length_a                          14.915
_cell_length_b                          14.915
_cell_length_c                          5.543
_cell_angle_alpha                       90
_cell_angle_beta                        90
_cell_angle_gamma                       120
_symmetry_space_group_name_H-M          'P 1'
_symmetry_int_tables_number             1
loop_
  _symmetry_equiv_pos_as_xyz
         'x, y, z' 
loop_
  _atom_site_label
  _atom_site_occupancy
  _atom_site_fract_x
  _atom_site_fract_y
  _atom_site_fract_z
  _atom_site_thermal_displace_type
  _atom_site_B_iso_or_equiv
  _atom_site_type_symbol
  _atom_site_charge
         C1        1.0000    0.88050   0.54030   0.73040   Biso      1.000     C          0.539315  
         C2        1.0000    0.49710   0.84680   0.75400   Biso      1.000     C          0.570058  
         C3        1.0000    0.15320   0.65030   0.75400   Biso      1.000     C          0.5700390000000001  
         C4        1.0000    0.11950   0.45970   0.23040   Biso      1.000     C          0.539315  
         C5        1.0000    0.16960   0.94520   0.88030   Biso      1.000     C          0.508008  
         C6        1.0000    0.50290   0.15320   0.25400   Biso      1.000     C          0.570058  
         C7        1.0000    0.94520   0.77560   0.38030   Biso      1.000     C          0.508008  
         C8        1.0000    0.84680   0.34970   0.25400   Biso      1.000     C          0.5700390000000001  
         C9        1.0000    0.34020   0.88050   0.23040   Biso      1.000     C          0.5393140000000001  
         C10       1.0000    0.77560   0.83040   0.88030   Biso      1.000     C          0.508008  
         C11       1.0000    0.45970   0.34020   0.73040   Biso      1.000     C          0.539315  
         C12       1.0000    0.65030   0.49710   0.25400   Biso      1.000     C          0.57009   
         C13       1.0000    0.05480   0.22440   0.88030   Biso      1.000     C          0.508007  
         C14       1.0000    0.54030   0.65980   0.23040   Biso      1.000     C          0.539316  
         C15       1.0000    0.34970   0.50290   0.75400   Biso      1.000     C          0.57009   
         C16       1.0000    0.22440   0.16960   0.38030   Biso      1.000     C          0.508008  
         C17       1.0000    0.65980   0.11950   0.73040   Biso      1.000     C          0.5393140000000001  
         C18       1.0000    0.83040   0.05480   0.38030   Biso      1.000     C          0.508008  
         H1        1.0000    0.40935   0.94743   0.13685   Biso      1.000     H          0.026817  
         H2        1.0000    0.14530   0.94747   0.07417   Biso      1.000     H          0.075882  
         H3        1.0000    0.60823   0.40900   0.24287   Biso      1.000     H          -0.020983           
         H4        1.0000    0.46192   0.40935   0.63685   Biso      1.000     H          0.026817  
         H5        1.0000    0.80217   0.85470   0.07417   Biso      1.000     H          0.075882  
         H6        1.0000    0.19922   0.60823   0.74287   Biso      1.000     H          -0.020949000000000002         
         H7        1.0000    0.94747   0.80217   0.57417   Biso      1.000     H          0.075882  
         H8        1.0000    0.40900   0.80078   0.74287   Biso      1.000     H          -0.020980000000000002         
         H9        1.0000    0.59100   0.19922   0.24287   Biso      1.000     H          -0.020980000000000002         
         H10       1.0000    0.05257   0.46192   0.13685   Biso      1.000     H          0.026818  
         H11       1.0000    0.59065   0.05257   0.63685   Biso      1.000     H          0.026817  
         H12       1.0000    0.19783   0.14530   0.57417   Biso      1.000     H          0.075882  
         H13       1.0000    0.53808   0.59065   0.13685   Biso      1.000     H          0.026817  
         H14       1.0000    0.39177   0.59100   0.74287   Biso      1.000     H          -0.020983           
         H15       1.0000    0.80078   0.39177   0.24287   Biso      1.000     H          -0.020949000000000002         
         H16       1.0000    0.94743   0.53808   0.63685   Biso      1.000     H          0.026818  
         H17       1.0000    0.85470   0.05253   0.57417   Biso      1.000     H          0.075882  
         H18       1.0000    0.05253   0.19783   0.07417   Biso      1.000     H          0.075882  
         Li1       1.0000    0.30220   0.03310   0.48340   Biso      1.000     Li          0.804659  
         Li2       1.0000    0.53150   0.19510   0.72430   Biso      1.000     Li          0.819782  
         Li3       1.0000    0.80490   0.33640   0.72430   Biso      1.000     Li          0.81978   
         Li4       1.0000    0.96690   0.26910   0.48340   Biso      1.000     Li          0.804658  
         Li5       1.0000    0.86300   0.19530   0.99330   Biso      1.000     Li          0.801363  
         Li6       1.0000    0.33230   0.13700   0.99330   Biso      1.000     Li          0.801363  
         Li7       1.0000    0.73090   0.69780   0.48340   Biso      1.000     Li          0.804659  
         Li8       1.0000    0.33640   0.53150   0.22430   Biso      1.000     Li          0.819783  
         Li9       1.0000    0.80470   0.66770   0.99330   Biso      1.000     Li          0.8013640000000001  
         Li10      1.0000    0.26910   0.30220   0.98340   Biso      1.000     Li          0.804659  
         Li11      1.0000    0.19530   0.33230   0.49330   Biso      1.000     Li          0.801365  
         Li12      1.0000    0.66770   0.86300   0.49330   Biso      1.000     Li          0.801363  
         Li13      1.0000    0.69780   0.96690   0.98340   Biso      1.000     Li          0.80466   
         Li14      1.0000    0.46850   0.80490   0.22430   Biso      1.000     Li          0.819782  
         Li15      1.0000    0.19510   0.66360   0.22430   Biso      1.000     Li          0.81978   
         Li16      1.0000    0.66360   0.46850   0.72430   Biso      1.000     Li          0.819783  
         Li17      1.0000    0.13700   0.80470   0.49330   Biso      1.000     Li          0.801363  
         Li18      1.0000    0.03310   0.73090   0.98340   Biso      1.000     Li          0.804659  
         O1        1.0000    0.54040   0.87210   0.95320   Biso      1.000     O          -0.686973           
         O2        1.0000    0.97940   0.22680   0.74720   Biso      1.000     O          -0.698361           
         O3        1.0000    0.14260   0.26020   0.74860   Biso      1.000     O          -0.699224           
         O4        1.0000    0.62610   0.72960   0.32960   Biso      1.000     O          -0.70409  
         O5        1.0000    0.46070   0.66790   0.23680   Biso      1.000     O          -0.665667           
         O6        1.0000    0.86340   0.32900   0.05000   Biso      1.000     O          -0.670593           
         O7        1.0000    0.79280   0.46070   0.73680   Biso      1.000     O          -0.665666           
         O8        1.0000    0.89650   0.62610   0.82960   Biso      1.000     O          -0.704088           
         O9        1.0000    0.88240   0.14260   0.24860   Biso      1.000     O          -0.6992229999999999           
         O10       1.0000    0.75260   0.97940   0.24720   Biso      1.000     O          -0.698363           
         O11       1.0000    0.32900   0.46560   0.55000   Biso      1.000     O          -0.670604           
         O12       1.0000    0.33170   0.45960   0.95320   Biso      1.000     O          -0.686991           
         O13       1.0000    0.87210   0.33170   0.45320   Biso      1.000     O          -0.686982           
         O14       1.0000    0.53440   0.86340   0.55000   Biso      1.000     O          -0.670585           
         O15       1.0000    0.24740   0.02060   0.74720   Biso      1.000     O          -0.698362           
         O16       1.0000    0.26020   0.11760   0.24860   Biso      1.000     O          -0.699224           
         O17       1.0000    0.11760   0.85740   0.74860   Biso      1.000     O          -0.6992229999999999           
         O18       1.0000    0.10350   0.37390   0.32960   Biso      1.000     O          -0.704088           
         O19       1.0000    0.20720   0.53930   0.23680   Biso      1.000     O          -0.665666           
         O20       1.0000    0.66830   0.54040   0.45320   Biso      1.000     O          -0.686991           
         O21       1.0000    0.67100   0.53440   0.05000   Biso      1.000     O          -0.670605           
         O22       1.0000    0.53930   0.33210   0.73680   Biso      1.000     O          -0.665667           
         O23       1.0000    0.37390   0.27040   0.82960   Biso      1.000     O          -0.70409  
         O24       1.0000    0.85740   0.73980   0.24860   Biso      1.000     O          -0.699224           
         O25       1.0000    0.22680   0.24740   0.24720   Biso      1.000     O          -0.698362           
         O26       1.0000    0.02060   0.77320   0.24720   Biso      1.000     O          -0.698361           
         O27       1.0000    0.12790   0.66830   0.95320   Biso      1.000     O          -0.686983           
         O28       1.0000    0.77320   0.75260   0.74720   Biso      1.000     O          -0.698362           
         O29       1.0000    0.73980   0.88240   0.74860   Biso      1.000     O          -0.699224           
         O30       1.0000    0.27040   0.89650   0.32960   Biso      1.000     O          -0.704088           
         O31       1.0000    0.33210   0.79280   0.23680   Biso      1.000     O          -0.665668           
         O32       1.0000    0.45960   0.12790   0.45320   Biso      1.000     O          -0.686973           
         O33       1.0000    0.46560   0.13660   0.05000   Biso      1.000     O          -0.670585           
         O34       1.0000    0.66790   0.20720   0.73680   Biso      1.000     O          -0.665668           
         O35       1.0000    0.13660   0.67100   0.55000   Biso      1.000     O          -0.670593           
         O36       1.0000    0.72960   0.10350   0.82960   Biso      1.000     O          -0.7040890000000001 