
##########################################################################
#               Crystallographic Information Format file
#               Produced by PyCifRW module
#
#  This is a CIF file.  CIF has been adopted by the International
#  Union of Crystallography as the standard for data archiving and
#  transmission.
#
#  For information on this file format, follow the CIF links at
#  http://www.iucr.org
##########################################################################

data_image0

_cell_length_a                          12.757
_cell_length_b                          12.757
_cell_length_c                          12.757
_cell_angle_alpha                       90
_cell_angle_beta                        90
_cell_angle_gamma                       90
_symmetry_space_group_name_H-M          'P 1'
_symmetry_int_tables_number             1
loop_
  _symmetry_equiv_pos_as_xyz
         'x, y, z' 
loop_
  _atom_site_label
  _atom_site_occupancy
  _atom_site_fract_x
  _atom_site_fract_y
  _atom_site_fract_z
  _atom_site_thermal_displace_type
  _atom_site_B_iso_or_equiv
  _atom_site_type_symbol
  _atom_site_charge
         C1        1.0000    0.77570   0.27570   0.47430   Biso      1.000     C          -0.17641600000000002          
         C2        1.0000    0.97430   0.47430   0.47430   Biso      1.000     C          -0.17821199999999998          
         C3        1.0000    0.47430   0.97430   0.47430   Biso      1.000     C          -0.170342           
         C4        1.0000    0.47430   0.47430   0.97430   Biso      1.000     C          -0.170966           
         C5        1.0000    0.27570   0.47430   0.77570   Biso      1.000     C          -0.170966           
         C6        1.0000    0.27570   0.97430   0.27570   Biso      1.000     C          -0.170346           
         C7        1.0000    0.77570   0.97430   0.77570   Biso      1.000     C          -0.176406           
         C8        1.0000    0.47430   0.77570   0.27570   Biso      1.000     C          -0.170968           
         C9        1.0000    0.97430   0.97430   0.97430   Biso      1.000     C          -0.17643  
         C10       1.0000    0.97430   0.77570   0.77570   Biso      1.000     C          -0.178201           
         C11       1.0000    0.27570   0.27570   0.97430   Biso      1.000     C          -0.170344           
         C12       1.0000    0.77570   0.47430   0.27570   Biso      1.000     C          -0.178202           
         C13       1.0000    0.47430   0.27570   0.77570   Biso      1.000     C          -0.17034100000000002          
         C14       1.0000    0.97430   0.27570   0.27570   Biso      1.000     C          -0.176439           
         C15       1.0000    0.22430   0.72430   0.52570   Biso      1.000     C          -0.17096  
         C16       1.0000    0.22430   0.22430   0.02570   Biso      1.000     C          -0.177998           
         C17       1.0000    0.72430   0.52570   0.22430   Biso      1.000     C          -0.17015  
         C18       1.0000    0.27570   0.77570   0.47430   Biso      1.000     C          -0.17078800000000002          
         C19       1.0000    0.77570   0.77570   0.97430   Biso      1.000     C          -0.17819300000000002          
         C20       1.0000    0.02570   0.22430   0.22430   Biso      1.000     C          -0.176232           
         C21       1.0000    0.02570   0.72430   0.72430   Biso      1.000     C          -0.170167           
         C22       1.0000    0.02570   0.02570   0.02570   Biso      1.000     C          -0.176249           
         C23       1.0000    0.52570   0.22430   0.72430   Biso      1.000     C          -0.178016           
         C24       1.0000    0.52570   0.02570   0.52570   Biso      1.000     C          -0.178022           
         C25       1.0000    0.52570   0.52570   0.02570   Biso      1.000     C          -0.170772           
         C26       1.0000    0.72430   0.22430   0.52570   Biso      1.000     C          -0.176246           
         C27       1.0000    0.02570   0.52570   0.52570   Biso      1.000     C          -0.17016199999999998          
         C28       1.0000    0.22430   0.52570   0.72430   Biso      1.000     C          -0.170779           
         C29       1.0000    0.22430   0.02570   0.22430   Biso      1.000     C          -0.178003           
         C30       1.0000    0.72430   0.02570   0.72430   Biso      1.000     C          -0.176262           
         C31       1.0000    0.52570   0.72430   0.22430   Biso      1.000     C          -0.170773           
         C32       1.0000    0.72430   0.72430   0.02570   Biso      1.000     C          -0.170154           
         Cd1       1.0000    0.37500   0.87500   0.37500   Biso      1.000     Cd          0.689163  
         Cd2       1.0000    0.37500   0.37500   0.87500   Biso      1.000     Cd          0.689175  
         Cd3       1.0000    0.87500   0.87500   0.87500   Biso      1.000     Cd          0.702033  
         Cd4       1.0000    0.87500   0.37500   0.37500   Biso      1.000     Cd          0.702051  
         Cd5       1.0000    0.62500   0.62500   0.12500   Biso      1.000     Cd          0.6890649999999999  
         Cd6       1.0000    0.62500   0.12500   0.62500   Biso      1.000     Cd          0.701966  
         Cd7       1.0000    0.12500   0.62500   0.62500   Biso      1.000     Cd          0.689103  
         Cd8       1.0000    0.12500   0.12500   0.12500   Biso      1.000     Cd          0.701946 