
##########################################################################
#               Crystallographic Information Format file
#               Produced by PyCifRW module
#
#  This is a CIF file.  CIF has been adopted by the International
#  Union of Crystallography as the standard for data archiving and
#  transmission.
#
#  For information on this file format, follow the CIF links at
#  http://www.iucr.org
##########################################################################

data_image0

_cell_length_a                          6.1308
_cell_length_b                          7.458
_cell_length_c                          12.457
_cell_angle_alpha                       74.662
_cell_angle_beta                        88.835
_cell_angle_gamma                       89.304
_symmetry_space_group_name_H-M          'P 1'
_symmetry_int_tables_number             1
loop_
  _symmetry_equiv_pos_as_xyz
         'x, y, z' 
loop_
  _atom_site_label
  _atom_site_occupancy
  _atom_site_fract_x
  _atom_site_fract_y
  _atom_site_fract_z
  _atom_site_thermal_displace_type
  _atom_site_B_iso_or_equiv
  _atom_site_type_symbol
  _atom_site_charge
         C1        1.0000    0.74030   0.45860   0.82250   Biso      1.000     C          0.582175  
         C2        1.0000    0.90520   0.45210   0.16190   Biso      1.000     C          0.048617  
         C3        1.0000    0.61550   0.62200   0.82830   Biso      1.000     C          0.034845  
         C4        1.0000    0.63900   0.77710   0.71780   Biso      1.000     C          0.063848  
         C5        1.0000    0.46140   0.90940   0.71840   Biso      1.000     C          0.607309  
         C6        1.0000    0.90200   0.11620   0.47190   Biso      1.000     C          0.617644  
         C7        1.0000    0.03280   0.28520   0.47590   Biso      1.000     C          0.026882999999999997          
         C8        1.0000    0.01200   0.33140   0.58320   Biso      1.000     C          0.067419  
         C9        1.0000    0.19010   0.47430   0.58310   Biso      1.000     C          0.63562   
         C10       1.0000    0.53110   0.35710   0.22490   Biso      1.000     C          0.608096  
         C11       1.0000    0.66670   0.44750   0.12860   Biso      1.000     C          0.03186   
         C12       1.0000    0.06730   0.47580   0.05750   Biso      1.000     C          0.612609  
         H1        1.0000    0.26990   0.23580   0.38990   Biso      1.000     H          0.345415  
         H2        1.0000    0.53220   0.66600   0.11460   Biso      1.000     H          0.385817  
         H3        1.0000    0.88110   0.68820   0.17320   Biso      1.000     H          0.382846  
         H4        1.0000    0.09350   0.09770   0.65850   Biso      1.000     H          0.382494  
         H5        1.0000    0.93910   0.33340   0.21540   Biso      1.000     H          0.072673  
         H6        1.0000    0.65940   0.37380   0.07430   Biso      1.000     H          0.061665  
         H7        1.0000    0.67180   0.66850   0.88890   Biso      1.000     H          0.13521   
         H8        1.0000    0.77980   0.83910   0.71490   Biso      1.000     H          0.128638  
         H9        1.0000    0.98080   0.39170   0.41740   Biso      1.000     H          0.13158699999999998           
         H10       1.0000    0.86970   0.39130   0.58630   Biso      1.000     H          0.101124  
         H11       1.0000    0.55020   0.60750   0.63610   Biso      1.000     H          0.385212  
         H12       1.0000    0.35800   0.59010   0.91580   Biso      1.000     H          0.38847800000000005           
         La1       1.0000    0.40358   0.93056   0.44661   Biso      1.000     La          1.940446  
         La2       1.0000    0.25107   0.25389   0.84994   Biso      1.000     La          1.956     
         O1        1.0000    0.92290   0.59000   0.21500   Biso      1.000     O          -0.543362           
         O2        1.0000    0.61990   0.62850   0.07470   Biso      1.000     O          -0.536216           
         O3        1.0000    0.41630   0.45200   0.27250   Biso      1.000     O          -0.5973149999999999           
         O4        1.0000    0.54980   0.19080   0.26660   Biso      1.000     O          -0.707962           
         O5        1.0000    0.95600   0.48480   0.79770   Biso      1.000     O          -0.6072960000000001           
         O6        1.0000    0.65890   0.29600   0.85160   Biso      1.000     O          -0.589967           
         O7        1.0000    0.38680   0.57530   0.85160   Biso      1.000     O          -0.565596           
         O8        1.0000    0.09000   0.32890   0.03080   Biso      1.000     O          -0.704259           
         O9        1.0000    0.61330   0.71230   0.61790   Biso      1.000     O          -0.576141           
         O10       1.0000    0.31470   0.94380   0.63780   Biso      1.000     O          -0.591002           
         O11       1.0000    0.69890   0.11690   0.49010   Biso      1.000     O          -0.592125           
         O12       1.0000    0.99110   0.98740   0.44500   Biso      1.000     O          -0.615364           
         O13       1.0000    0.25870   0.25490   0.45410   Biso      1.000     O          -0.517951           
         O14       1.0000    0.03140   0.18780   0.67710   Biso      1.000     O          -0.5648810000000001           
         O15       1.0000    0.33270   0.43400   0.65250   Biso      1.000     O          -0.581538           
         O16       1.0000    0.19650   0.62550   0.50130   Biso      1.000     O          -0.6419020000000001           
         O17       1.0000    0.44670   0.99580   0.80140   Biso      1.000     O          -0.626991           
         O18       1.0000    0.13130   0.63110   0.01440   Biso      1.000     O          -0.574662 