
##########################################################################
#               Crystallographic Information Format file
#               Produced by PyCifRW module
#
#  This is a CIF file.  CIF has been adopted by the International
#  Union of Crystallography as the standard for data archiving and
#  transmission.
#
#  For information on this file format, follow the CIF links at
#  http://www.iucr.org
##########################################################################

data_image0

_cell_length_a                          6.9994
_cell_length_b                          20.539
_cell_length_c                          20.539
_cell_angle_alpha                       90
_cell_angle_beta                        90
_cell_angle_gamma                       90
_symmetry_space_group_name_H-M          'P 1'
_symmetry_int_tables_number             1
loop_
  _symmetry_equiv_pos_as_xyz
         'x, y, z' 
loop_
  _atom_site_label
  _atom_site_occupancy
  _atom_site_fract_x
  _atom_site_fract_y
  _atom_site_fract_z
  _atom_site_thermal_displace_type
  _atom_site_B_iso_or_equiv
  _atom_site_type_symbol
  _atom_site_charge
         C1        1.0000    0.63480   0.01263   0.88571   Biso      1.000     C          0.5984510000000001  
         C2        1.0000    0.14930   0.29628   0.49024   Biso      1.000     C          -0.113606           
         C3        1.0000    0.32240   0.31400   0.51568   Biso      1.000     C          -0.044176           
         C4        1.0000    0.13480   0.38571   0.98737   Biso      1.000     C          0.598439  
         C5        1.0000    0.38310   0.11619   0.99190   Biso      1.000     C          0.604535  
         C6        1.0000    0.38000   0.29879   0.94767   Biso      1.000     C          0.057635000000000006          
         C7        1.0000    0.43990   0.23202   0.95098   Biso      1.000     C          0.049245  
         C8        1.0000    0.60960   0.21264   0.91809   Biso      1.000     C          -0.144531           
         C9        1.0000    0.71370   0.25610   0.88265   Biso      1.000     C          -0.083162           
         C10       1.0000    0.65430   0.32169   0.87878   Biso      1.000     C          -0.068705           
         C11       1.0000    0.09350   0.23034   0.49116   Biso      1.000     C          -0.08923500000000001          
         C12       1.0000    0.49350   0.34228   0.91021   Biso      1.000     C          -0.142272           
         C13       1.0000    0.09350   0.26966   0.00884   Biso      1.000     C          -0.089225           
         C14       1.0000    0.14930   0.20372   0.00976   Biso      1.000     C          -0.113593           
         C15       1.0000    0.32240   0.18600   0.98432   Biso      1.000     C          -0.044163           
         C16       1.0000    0.15430   0.37878   0.67831   Biso      1.000     C          -0.068698           
         C17       1.0000    0.21370   0.38265   0.74390   Biso      1.000     C          -0.083172           
         C18       1.0000    0.10960   0.41809   0.78736   Biso      1.000     C          -0.144525           
         C19       1.0000    0.93990   0.45098   0.76798   Biso      1.000     C          0.049244  
         C20       1.0000    0.88000   0.44767   0.70121   Biso      1.000     C          0.057636  
         C21       1.0000    0.88310   0.49190   0.88381   Biso      1.000     C          0.604534  
         C22       1.0000    0.20610   0.31677   0.98042   Biso      1.000     C          -0.075472           
         C23       1.0000    0.63480   0.48737   0.61429   Biso      1.000     C          0.598444  
         C24       1.0000    0.20610   0.18323   0.51958   Biso      1.000     C          -0.075495           
         C25       1.0000    0.65430   0.17831   0.62122   Biso      1.000     C          -0.068708           
         C26       1.0000    0.64930   0.50976   0.79628   Biso      1.000     C          -0.11359200000000001          
         C27       1.0000    0.82240   0.48432   0.81400   Biso      1.000     C          -0.044162           
         C28       1.0000    0.99350   0.41021   0.65772   Biso      1.000     C          -0.142269           
         C29       1.0000    0.88310   0.00810   0.61619   Biso      1.000     C          0.604545  
         C30       1.0000    0.88000   0.05233   0.79879   Biso      1.000     C          0.057629  
         C31       1.0000    0.93990   0.04902   0.73202   Biso      1.000     C          0.049233  
         C32       1.0000    0.10960   0.08191   0.71264   Biso      1.000     C          -0.144533           
         C33       1.0000    0.21370   0.11735   0.75610   Biso      1.000     C          -0.08316699999999999          
         C34       1.0000    0.15430   0.12122   0.82169   Biso      1.000     C          -0.068715           
         C35       1.0000    0.49350   0.15772   0.58979   Biso      1.000     C          -0.142277           
         C36       1.0000    0.99350   0.08979   0.84228   Biso      1.000     C          -0.142279           
         C37       1.0000    0.59350   0.99116   0.76966   Biso      1.000     C          -0.089238           
         C38       1.0000    0.64930   0.99024   0.70372   Biso      1.000     C          -0.113607           
         C39       1.0000    0.82240   0.01568   0.68600   Biso      1.000     C          -0.044176           
         C40       1.0000    0.13480   0.11429   0.51263   Biso      1.000     C          0.5984550000000001  
         C41       1.0000    0.38310   0.38381   0.50810   Biso      1.000     C          0.604545  
         C42       1.0000    0.38000   0.20121   0.55233   Biso      1.000     C          0.057629999999999994          
         C43       1.0000    0.43990   0.26798   0.54902   Biso      1.000     C          0.049233  
         C44       1.0000    0.60960   0.28736   0.58191   Biso      1.000     C          -0.144535           
         C45       1.0000    0.71370   0.24390   0.61735   Biso      1.000     C          -0.08317000000000001          
         C46       1.0000    0.70610   0.01958   0.81677   Biso      1.000     C          -0.07549600000000001          
         C47       1.0000    0.67760   0.81400   0.01568   Biso      1.000     C          -0.044170999999999995         
         C48       1.0000    0.85070   0.79628   0.99024   Biso      1.000     C          -0.113587           
         C49       1.0000    0.90650   0.73034   0.99116   Biso      1.000     C          -0.089225           
         C50       1.0000    0.00650   0.91021   0.15772   Biso      1.000     C          -0.142286           
         C51       1.0000    0.84570   0.87878   0.17831   Biso      1.000     C          -0.06870599999999999          
         C52       1.0000    0.78630   0.88265   0.24390   Biso      1.000     C          -0.083176           
         C53       1.0000    0.89040   0.91809   0.28736   Biso      1.000     C          -0.144525           
         C54       1.0000    0.06010   0.95098   0.26798   Biso      1.000     C          0.049233  
         C55       1.0000    0.12000   0.94767   0.20121   Biso      1.000     C          0.057629999999999994          
         C56       1.0000    0.11690   0.99190   0.38381   Biso      1.000     C          0.604545  
         C57       1.0000    0.36520   0.98737   0.11429   Biso      1.000     C          0.5984510000000001  
         C58       1.0000    0.17760   0.51568   0.18600   Biso      1.000     C          -0.044168           
         C59       1.0000    0.29390   0.98042   0.18323   Biso      1.000     C          -0.0755   
         C60       1.0000    0.35070   0.49024   0.20372   Biso      1.000     C          -0.11358800000000001          
         C61       1.0000    0.29390   0.51958   0.31677   Biso      1.000     C          -0.075476           
         C62       1.0000    0.00650   0.58979   0.34228   Biso      1.000     C          -0.14227599999999999          
         C63       1.0000    0.84570   0.62122   0.32169   Biso      1.000     C          -0.06869199999999999          
         C64       1.0000    0.78630   0.61735   0.25610   Biso      1.000     C          -0.083173           
         C65       1.0000    0.89040   0.58191   0.21264   Biso      1.000     C          -0.144525           
         C66       1.0000    0.06010   0.54902   0.23202   Biso      1.000     C          0.049245  
         C67       1.0000    0.12000   0.55233   0.29879   Biso      1.000     C          0.057637  
         C68       1.0000    0.11690   0.50810   0.11619   Biso      1.000     C          0.604535  
         C69       1.0000    0.36520   0.51263   0.38571   Biso      1.000     C          0.598444  
         C70       1.0000    0.40650   0.49116   0.26966   Biso      1.000     C          -0.08922000000000001          
         C71       1.0000    0.40650   0.00884   0.23034   Biso      1.000     C          -0.089232           
         C72       1.0000    0.35070   0.00976   0.29628   Biso      1.000     C          -0.113607           
         C73       1.0000    0.17760   0.98432   0.31400   Biso      1.000     C          -0.044175           
         C74       1.0000    0.79390   0.68323   0.01958   Biso      1.000     C          -0.075472           
         C75       1.0000    0.50650   0.65772   0.08979   Biso      1.000     C          -0.142279           
         C76       1.0000    0.34570   0.67831   0.12122   Biso      1.000     C          -0.068698           
         C77       1.0000    0.28630   0.74390   0.11735   Biso      1.000     C          -0.08317000000000001          
         C78       1.0000    0.39040   0.78736   0.08191   Biso      1.000     C          -0.144524           
         C79       1.0000    0.56010   0.76798   0.04902   Biso      1.000     C          0.049244  
         C80       1.0000    0.62000   0.70121   0.05233   Biso      1.000     C          0.057636  
         C81       1.0000    0.61690   0.88381   0.00810   Biso      1.000     C          0.604536  
         C82       1.0000    0.86520   0.61429   0.01263   Biso      1.000     C          0.59844   
         C83       1.0000    0.67760   0.68600   0.48432   Biso      1.000     C          -0.044181           
         C84       1.0000    0.85070   0.70372   0.50976   Biso      1.000     C          -0.1136   
         C85       1.0000    0.90650   0.76966   0.50884   Biso      1.000     C          -0.089236           
         C86       1.0000    0.79390   0.81677   0.48042   Biso      1.000     C          -0.075495           
         C87       1.0000    0.50650   0.84228   0.41021   Biso      1.000     C          -0.142284           
         C88       1.0000    0.34570   0.82169   0.37878   Biso      1.000     C          -0.068701           
         C89       1.0000    0.28630   0.75610   0.38265   Biso      1.000     C          -0.083178           
         C90       1.0000    0.39040   0.71264   0.41809   Biso      1.000     C          -0.144527           
         C91       1.0000    0.56010   0.73202   0.45098   Biso      1.000     C          0.049233  
         C92       1.0000    0.62000   0.79879   0.44767   Biso      1.000     C          0.057629999999999994          
         C93       1.0000    0.61690   0.61619   0.49190   Biso      1.000     C          0.604545  
         C94       1.0000    0.86520   0.88571   0.48737   Biso      1.000     C          0.5984550000000001  
         C95       1.0000    0.59350   0.50884   0.73034   Biso      1.000     C          -0.089224           
         C96       1.0000    0.70610   0.48042   0.68323   Biso      1.000     C          -0.075472           
         Cu1       1.0000    0.66374   0.01897   0.02391   Biso      1.000     Cu          0.869549  
         Cu2       1.0000    0.66374   0.48103   0.47609   Biso      1.000     Cu          0.8695579999999999  
         Cu3       1.0000    0.16374   0.97609   0.51897   Biso      1.000     Cu          0.869599  
         Cu4       1.0000    0.16374   0.52391   0.98103   Biso      1.000     Cu          0.869516  
         Cu5       1.0000    0.33626   0.98103   0.97609   Biso      1.000     Cu          0.8695620000000001  
         Cu6       1.0000    0.33626   0.51897   0.52391   Biso      1.000     Cu          0.869561  
         Cu7       1.0000    0.83626   0.02391   0.48103   Biso      1.000     Cu          0.8695930000000001  
         Cu8       1.0000    0.83626   0.47609   0.01897   Biso      1.000     Cu          0.8695209999999999  
         H1        1.0000    0.84900   0.57910   0.16870   Biso      1.000     H          0.114596  
         H2        1.0000    0.15100   0.07910   0.66870   Biso      1.000     H          0.11458399999999999           
         H3        1.0000    0.32590   0.13940   0.74230   Biso      1.000     H          0.10856600000000001           
         H4        1.0000    0.22720   0.14600   0.85180   Biso      1.000     H          0.10019600000000001           
         H5        1.0000    0.95650   0.09300   0.88670   Biso      1.000     H          0.120076  
         H6        1.0000    0.47560   0.97180   0.78190   Biso      1.000     H          0.130064  
         H7        1.0000    0.56720   0.97200   0.67170   Biso      1.000     H          0.128236  
         H8        1.0000    0.65100   0.33130   0.57910   Biso      1.000     H          0.11458299999999999           
         H9        1.0000    0.82590   0.25770   0.63940   Biso      1.000     H          0.10856700000000001           
         H10       1.0000    0.06720   0.32830   0.47200   Biso      1.000     H          0.128237  
         H11       1.0000    0.45650   0.11330   0.59300   Biso      1.000     H          0.120077  
         H12       1.0000    0.97560   0.21810   0.47180   Biso      1.000     H          0.130071  
         H13       1.0000    0.56720   0.52800   0.82830   Biso      1.000     H          0.12825799999999998           
         H14       1.0000    0.65100   0.16870   0.92090   Biso      1.000     H          0.114599  
         H15       1.0000    0.72720   0.35180   0.85400   Biso      1.000     H          0.1002    
         H16       1.0000    0.45650   0.38670   0.90700   Biso      1.000     H          0.120091  
         H17       1.0000    0.97560   0.28190   0.02820   Biso      1.000     H          0.130082  
         H18       1.0000    0.06720   0.17170   0.02800   Biso      1.000     H          0.128254  
         H19       1.0000    0.72720   0.14820   0.64600   Biso      1.000     H          0.1002    
         H20       1.0000    0.47560   0.52820   0.71810   Biso      1.000     H          0.13008599999999998           
         H21       1.0000    0.82590   0.24230   0.86060   Biso      1.000     H          0.108571  
         H22       1.0000    0.22720   0.35400   0.64820   Biso      1.000     H          0.10020499999999999           
         H23       1.0000    0.95650   0.40700   0.61330   Biso      1.000     H          0.120094  
         H24       1.0000    0.67410   0.63940   0.24230   Biso      1.000     H          0.108572  
         H25       1.0000    0.77280   0.64600   0.35180   Biso      1.000     H          0.100204  
         H26       1.0000    0.04350   0.59300   0.38670   Biso      1.000     H          0.120094  
         H27       1.0000    0.52440   0.47180   0.28190   Biso      1.000     H          0.130084  
         H28       1.0000    0.43280   0.47200   0.17170   Biso      1.000     H          0.12825599999999998           
         H29       1.0000    0.84900   0.92090   0.33130   Biso      1.000     H          0.11458399999999999           
         H30       1.0000    0.77280   0.85400   0.14820   Biso      1.000     H          0.10019600000000001           
         H31       1.0000    0.04350   0.90700   0.11330   Biso      1.000     H          0.120077  
         H32       1.0000    0.52440   0.02820   0.21810   Biso      1.000     H          0.13006700000000002           
         H33       1.0000    0.43280   0.02800   0.32830   Biso      1.000     H          0.128237  
         H34       1.0000    0.34900   0.66870   0.42090   Biso      1.000     H          0.11458299999999999           
         H35       1.0000    0.67410   0.86060   0.25770   Biso      1.000     H          0.10856700000000001           
         H36       1.0000    0.27280   0.85180   0.35400   Biso      1.000     H          0.1002    
         H37       1.0000    0.32590   0.36060   0.75770   Biso      1.000     H          0.108572  
         H38       1.0000    0.17410   0.74230   0.36060   Biso      1.000     H          0.10856700000000001           
         H39       1.0000    0.15100   0.42090   0.83130   Biso      1.000     H          0.114595  
         H40       1.0000    0.93280   0.82830   0.97200   Biso      1.000     H          0.128252  
         H41       1.0000    0.02440   0.71810   0.97180   Biso      1.000     H          0.130082  
         H42       1.0000    0.27280   0.64820   0.14600   Biso      1.000     H          0.1002    
         H43       1.0000    0.54350   0.61330   0.09300   Biso      1.000     H          0.120092  
         H44       1.0000    0.34900   0.83130   0.07910   Biso      1.000     H          0.114598  
         H45       1.0000    0.93280   0.67170   0.52800   Biso      1.000     H          0.128237  
         H46       1.0000    0.02440   0.78190   0.52820   Biso      1.000     H          0.13007   
         H47       1.0000    0.54350   0.88670   0.40700   Biso      1.000     H          0.120078  
         H48       1.0000    0.17410   0.75770   0.13940   Biso      1.000     H          0.108572  
         O1        1.0000    0.75080   0.56749   0.02382   Biso      1.000     O          -0.532855           
         O2        1.0000    0.73450   0.57344   0.47519   Biso      1.000     O          -0.511363           
         O3        1.0000    0.03470   0.60741   0.99463   Biso      1.000     O          -0.533917           
         O4        1.0000    0.73450   0.92656   0.02481   Biso      1.000     O          -0.511318           
         O5        1.0000    0.45160   0.60590   0.51488   Biso      1.000     O          -0.541916           
         O6        1.0000    0.75080   0.93251   0.47618   Biso      1.000     O          -0.5328689999999999           
         O7        1.0000    0.95160   0.48512   0.10590   Biso      1.000     O          -0.54191  
         O8        1.0000    0.95160   0.01488   0.39410   Biso      1.000     O          -0.541916           
         O9        1.0000    0.23450   0.97519   0.42656   Biso      1.000     O          -0.511329           
         O10       1.0000    0.25080   0.97618   0.06749   Biso      1.000     O          -0.53287  
         O11       1.0000    0.53470   0.00537   0.10741   Biso      1.000     O          -0.533916           
         O12       1.0000    0.45160   0.89410   0.98512   Biso      1.000     O          -0.541908           
         O13       1.0000    0.23450   0.52481   0.07344   Biso      1.000     O          -0.511346           
         O14       1.0000    0.03470   0.89259   0.50537   Biso      1.000     O          -0.5338970000000001           
         O15       1.0000    0.46530   0.50537   0.60741   Biso      1.000     O          -0.533905           
         O16       1.0000    0.24920   0.43251   0.97618   Biso      1.000     O          -0.532856           
         O17       1.0000    0.76550   0.47519   0.92656   Biso      1.000     O          -0.5113449999999999           
         O18       1.0000    0.04840   0.51488   0.89410   Biso      1.000     O          -0.5419109999999999           
         O19       1.0000    0.46530   0.99463   0.89259   Biso      1.000     O          -0.533906           
         O20       1.0000    0.74920   0.02382   0.93251   Biso      1.000     O          -0.532883           
         O21       1.0000    0.76550   0.02481   0.57344   Biso      1.000     O          -0.5113310000000001           
         O22       1.0000    0.04840   0.98512   0.60590   Biso      1.000     O          -0.541913           
         O23       1.0000    0.96530   0.10741   0.49463   Biso      1.000     O          -0.533899           
         O24       1.0000    0.24920   0.06749   0.52382   Biso      1.000     O          -0.532866           
         O25       1.0000    0.26550   0.42656   0.52481   Biso      1.000     O          -0.511364           
         O26       1.0000    0.54840   0.39410   0.48512   Biso      1.000     O          -0.541916           
         O27       1.0000    0.96530   0.39259   0.00537   Biso      1.000     O          -0.533916           
         O28       1.0000    0.26550   0.07344   0.97519   Biso      1.000     O          -0.511306           
         O29       1.0000    0.54840   0.10590   0.01488   Biso      1.000     O          -0.541918           
         O30       1.0000    0.25080   0.52382   0.43251   Biso      1.000     O          -0.532849           
         O31       1.0000    0.74920   0.47618   0.56749   Biso      1.000     O          -0.532849           
         O32       1.0000    0.53470   0.49463   0.39259   Biso      1.000     O          -0.533904 