
##########################################################################
#               Crystallographic Information Format file
#               Produced by PyCifRW module
#
#  This is a CIF file.  CIF has been adopted by the International
#  Union of Crystallography as the standard for data archiving and
#  transmission.
#
#  For information on this file format, follow the CIF links at
#  http://www.iucr.org
##########################################################################

data_image0

_cell_length_a                          9.2252
_cell_length_b                          10.627
_cell_length_c                          10.807
_cell_angle_alpha                       86.51
_cell_angle_beta                        83.93
_cell_angle_gamma                       81.22
_symmetry_space_group_name_H-M          'P 1'
_symmetry_int_tables_number             1
loop_
  _symmetry_equiv_pos_as_xyz
         'x, y, z' 
loop_
  _atom_site_label
  _atom_site_occupancy
  _atom_site_fract_x
  _atom_site_fract_y
  _atom_site_fract_z
  _atom_site_thermal_displace_type
  _atom_site_B_iso_or_equiv
  _atom_site_type_symbol
  _atom_site_charge
         C1        1.0000    0.47810   0.44380   0.11710   Biso      1.000     C          -0.138719           
         C2        1.0000    0.80420   0.46780   0.55920   Biso      1.000     C          0.64542   
         C3        1.0000    0.64510   0.47850   0.52830   Biso      1.000     C          -0.024437999999999998         
         C4        1.0000    0.54430   0.41550   0.59740   Biso      1.000     C          -0.100975           
         C5        1.0000    0.39650   0.43890   0.57240   Biso      1.000     C          -0.022249           
         C6        1.0000    0.62080   0.44150   0.06130   Biso      1.000     C          -0.031798           
         C7        1.0000    0.28150   0.37830   0.65120   Biso      1.000     C          0.613505  
         C8        1.0000    0.76570   0.85080   0.57920   Biso      1.000     C          0.624448  
         C9        1.0000    0.62750   0.92880   0.53730   Biso      1.000     C          -0.043016000000000006         
         C10       1.0000    0.49410   0.90860   0.59730   Biso      1.000     C          -0.117121           
         C11       1.0000    0.25370   0.61320   0.86420   Biso      1.000     C          0.569519  
         C12       1.0000    0.36300   0.98100   0.56200   Biso      1.000     C          -0.021097           
         C13       1.0000    0.52190   0.55620   0.88290   Biso      1.000     C          -0.138719           
         C14       1.0000    0.37920   0.55850   0.93870   Biso      1.000     C          -0.031797000000000006         
         C15       1.0000    0.74630   0.38680   0.13580   Biso      1.000     C          0.56952   
         C16       1.0000    0.64240   0.49760   0.94290   Biso      1.000     C          -0.029493000000000002         
         C17       1.0000    0.78170   0.04680   0.36880   Biso      1.000     C          0.675479  
         C18       1.0000    0.63700   0.01900   0.43800   Biso      1.000     C          -0.021096           
         C19       1.0000    0.21830   0.95320   0.63120   Biso      1.000     C          0.675479  
         C20       1.0000    0.50590   0.09140   0.40270   Biso      1.000     C          -0.117128           
         C21       1.0000    0.37250   0.07120   0.46270   Biso      1.000     C          -0.043008           
         C22       1.0000    0.23430   0.14920   0.42080   Biso      1.000     C          0.624449  
         C23       1.0000    0.71850   0.62170   0.34880   Biso      1.000     C          0.613505  
         C24       1.0000    0.60350   0.56110   0.42760   Biso      1.000     C          -0.022247           
         C25       1.0000    0.20900   0.50770   0.13520   Biso      1.000     C          0.703277  
         C26       1.0000    0.45570   0.58450   0.40260   Biso      1.000     C          -0.100984           
         C27       1.0000    0.35490   0.52150   0.47170   Biso      1.000     C          -0.024429           
         C28       1.0000    0.19580   0.53220   0.44080   Biso      1.000     C          0.64542   
         C29       1.0000    0.35760   0.50240   0.05710   Biso      1.000     C          -0.029493000000000002         
         C30       1.0000    0.79100   0.49230   0.86480   Biso      1.000     C          0.703277  
         Ce1       1.0000    0.02241   0.67695   0.68627   Biso      1.000     Ce          2.09633   
         Ce2       1.0000    0.96895   0.76005   0.28142   Biso      1.000     Ce          2.150282  
         Ce3       1.0000    0.03105   0.23995   0.71858   Biso      1.000     Ce          2.15028   
         Ce4       1.0000    0.97759   0.32305   0.31373   Biso      1.000     Ce          2.096329  
         H1        1.0000    0.42660   0.64280   0.33900   Biso      1.000     H          0.13489   
         H2        1.0000    0.50990   0.15330   0.33830   Biso      1.000     H          0.14127699999999999           
         H3        1.0000    0.57340   0.35720   0.66100   Biso      1.000     H          0.13489   
         H4        1.0000    0.53730   0.59460   0.80390   Biso      1.000     H          0.130445  
         H5        1.0000    0.49010   0.84670   0.66170   Biso      1.000     H          0.14127699999999999           
         H6        1.0000    0.46270   0.40540   0.19610   Biso      1.000     H          0.130446  
         O1        1.0000    0.87860   0.82380   0.49990   Biso      1.000     O          -0.735432           
         O2        1.0000    0.16850   0.01580   0.72660   Biso      1.000     O          -0.7433310000000001           
         O3        1.0000    0.15190   0.44240   0.66930   Biso      1.000     O          -0.73174  
         O4        1.0000    0.88590   0.36030   0.54450   Biso      1.000     O          -0.745468           
         O5        1.0000    0.15910   0.86630   0.59280   Biso      1.000     O          -0.639087           
         O6        1.0000    0.87300   0.41170   0.10000   Biso      1.000     O          -0.622634           
         O7        1.0000    0.72130   0.32560   0.23680   Biso      1.000     O          -0.63953  
         O8        1.0000    0.76800   0.81700   0.69060   Biso      1.000     O          -0.5886359999999999           
         O9        1.0000    0.30640   0.26540   0.69350   Biso      1.000     O          -0.5766180000000001           
         O10       1.0000    0.15470   0.40770   0.15170   Biso      1.000     O          -0.601984           
         O11       1.0000    0.83740   0.38790   0.81750   Biso      1.000     O          -0.7452770000000001           
         O12       1.0000    0.15930   0.43630   0.40130   Biso      1.000     O          -0.586229           
         O13       1.0000    0.83150   0.98420   0.27340   Biso      1.000     O          -0.743332           
         O14       1.0000    0.84810   0.55760   0.33070   Biso      1.000     O          -0.73174  
         O15       1.0000    0.69360   0.73460   0.30650   Biso      1.000     O          -0.5766180000000001           
         O16       1.0000    0.11410   0.63970   0.45550   Biso      1.000     O          -0.745468           
         O17       1.0000    0.84530   0.59230   0.84830   Biso      1.000     O          -0.601984           
         O18       1.0000    0.84090   0.13370   0.40720   Biso      1.000     O          -0.639087           
         O19       1.0000    0.12700   0.58830   0.90000   Biso      1.000     O          -0.622634           
         O20       1.0000    0.27870   0.67440   0.76320   Biso      1.000     O          -0.63953  
         O21       1.0000    0.23200   0.18300   0.30940   Biso      1.000     O          -0.588637           
         O22       1.0000    0.12140   0.17620   0.50010   Biso      1.000     O          -0.735432           
         O23       1.0000    0.84070   0.56370   0.59870   Biso      1.000     O          -0.586229           
         O24       1.0000    0.16260   0.61210   0.18250   Biso      1.000     O          -0.7452770000000001 