
##########################################################################
#               Crystallographic Information Format file
#               Produced by PyCifRW module
#
#  This is a CIF file.  CIF has been adopted by the International
#  Union of Crystallography as the standard for data archiving and
#  transmission.
#
#  For information on this file format, follow the CIF links at
#  http://www.iucr.org
##########################################################################

data_image0

_cell_length_a                          12.248
_cell_length_b                          12.248
_cell_length_c                          22.8767
_cell_angle_alpha                       90
_cell_angle_beta                        90
_cell_angle_gamma                       90
_symmetry_space_group_name_H-M          'P 1'
_symmetry_int_tables_number             1
loop_
  _symmetry_equiv_pos_as_xyz
         'x, y, z' 
loop_
  _atom_site_label
  _atom_site_occupancy
  _atom_site_fract_x
  _atom_site_fract_y
  _atom_site_fract_z
  _atom_site_thermal_displace_type
  _atom_site_B_iso_or_equiv
  _atom_site_type_symbol
  _atom_site_charge
         C1        1.0000    0.63920   0.59610   0.18525   Biso      1.000     C          -0.161421           
         C2        1.0000    0.28000   0.59620   0.85640   Biso      1.000     C          -0.096553           
         C3        1.0000    0.36080   0.59610   0.81475   Biso      1.000     C          -0.161421           
         C4        1.0000    0.72000   0.40380   0.85640   Biso      1.000     C          -0.096553           
         C5        1.0000    0.63920   0.40390   0.81475   Biso      1.000     C          -0.16142  
         C6        1.0000    0.40380   0.72000   0.64360   Biso      1.000     C          -0.096552           
         C7        1.0000    0.63920   0.59610   0.81475   Biso      1.000     C          -0.161421           
         C8        1.0000    0.72000   0.59620   0.85640   Biso      1.000     C          -0.096553           
         C9        1.0000    0.36080   0.40390   0.81475   Biso      1.000     C          -0.161421           
         C10       1.0000    0.28000   0.40380   0.85640   Biso      1.000     C          -0.096553           
         C11       1.0000    0.40390   0.63920   0.31475   Biso      1.000     C          -0.161397           
         C12       1.0000    0.40380   0.72000   0.35640   Biso      1.000     C          -0.096553           
         C13       1.0000    0.59610   0.36080   0.31475   Biso      1.000     C          -0.161397           
         C14       1.0000    0.59620   0.28000   0.35640   Biso      1.000     C          -0.096553           
         C15       1.0000    0.36080   0.59610   0.18525   Biso      1.000     C          -0.161421           
         C16       1.0000    0.28000   0.59620   0.14360   Biso      1.000     C          -0.096553           
         C17       1.0000    0.63920   0.40390   0.18525   Biso      1.000     C          -0.161421           
         C18       1.0000    0.72000   0.40380   0.14360   Biso      1.000     C          -0.096553           
         C19       1.0000    0.59610   0.63920   0.68525   Biso      1.000     C          -0.161397           
         C20       1.0000    0.59620   0.72000   0.64360   Biso      1.000     C          -0.096553           
         C21       1.0000    0.40390   0.36080   0.68525   Biso      1.000     C          -0.161397           
         C22       1.0000    0.40380   0.28000   0.64360   Biso      1.000     C          -0.096552           
         C23       1.0000    0.36080   0.40390   0.18525   Biso      1.000     C          -0.161421           
         C24       1.0000    0.28000   0.40380   0.14360   Biso      1.000     C          -0.096554           
         C25       1.0000    0.40390   0.63920   0.68525   Biso      1.000     C          -0.161398           
         C26       1.0000    0.72000   0.59620   0.14360   Biso      1.000     C          -0.096554           
         C27       1.0000    0.40390   0.36080   0.31475   Biso      1.000     C          -0.161398           
         C28       1.0000    0.40380   0.28000   0.35640   Biso      1.000     C          -0.096553           
         C29       1.0000    0.59610   0.63920   0.31475   Biso      1.000     C          -0.161398           
         C30       1.0000    0.59620   0.72000   0.35640   Biso      1.000     C          -0.096552           
         C31       1.0000    0.50000   0.50000   0.25000   Biso      1.000     C          -0.043357           
         C32       1.0000    0.50000   0.50000   0.75000   Biso      1.000     C          -0.043357           
         C33       1.0000    0.50000   0.23750   0.62230   Biso      1.000     C          -0.023155000000000002         
         C34       1.0000    0.50000   0.14490   0.57640   Biso      1.000     C          0.588149  
         C35       1.0000    0.50000   0.40040   0.70720   Biso      1.000     C          0.08759299999999999           
         C36       1.0000    0.50000   0.76250   0.62230   Biso      1.000     C          -0.023150999999999998         
         C37       1.0000    0.50000   0.85510   0.57640   Biso      1.000     C          0.588148  
         C38       1.0000    0.50000   0.59960   0.70720   Biso      1.000     C          0.08759600000000001           
         C39       1.0000    0.76250   0.50000   0.12230   Biso      1.000     C          -0.023142           
         C40       1.0000    0.85510   0.50000   0.07640   Biso      1.000     C          0.588136  
         C41       1.0000    0.59960   0.50000   0.20720   Biso      1.000     C          0.087568  
         C42       1.0000    0.23750   0.50000   0.12230   Biso      1.000     C          -0.023142           
         C43       1.0000    0.59610   0.36080   0.68525   Biso      1.000     C          -0.161394           
         C44       1.0000    0.14490   0.50000   0.07640   Biso      1.000     C          0.588136  
         C45       1.0000    0.50000   0.23750   0.37770   Biso      1.000     C          -0.02315  
         C46       1.0000    0.50000   0.14490   0.42360   Biso      1.000     C          0.588149  
         C47       1.0000    0.50000   0.40040   0.29280   Biso      1.000     C          0.08759600000000001           
         C48       1.0000    0.50000   0.76250   0.37770   Biso      1.000     C          -0.023150999999999998         
         C49       1.0000    0.50000   0.85510   0.42360   Biso      1.000     C          0.588148  
         C50       1.0000    0.50000   0.59960   0.29280   Biso      1.000     C          0.08759600000000001           
         C51       1.0000    0.23750   0.50000   0.87770   Biso      1.000     C          -0.023143           
         C52       1.0000    0.14490   0.50000   0.92360   Biso      1.000     C          0.588136  
         C53       1.0000    0.40040   0.50000   0.79280   Biso      1.000     C          0.087568  
         C54       1.0000    0.76250   0.50000   0.87770   Biso      1.000     C          -0.023143           
         C55       1.0000    0.85510   0.50000   0.92360   Biso      1.000     C          0.588136  
         C56       1.0000    0.59960   0.50000   0.79280   Biso      1.000     C          0.087568  
         C57       1.0000    0.40040   0.50000   0.20720   Biso      1.000     C          0.087568  
         C58       1.0000    0.59620   0.28000   0.64360   Biso      1.000     C          -0.096549           
         Cu1       1.0000    0.00000   0.60771   0.00000   Biso      1.000     Cu          0.868721  
         Cu2       1.0000    0.00000   0.39229   0.00000   Biso      1.000     Cu          0.8687159999999999  
         Cu3       1.0000    0.39229   0.00000   0.50000   Biso      1.000     Cu          0.868857  
         Cu4       1.0000    0.60771   0.00000   0.50000   Biso      1.000     Cu          0.868858  
         H1        1.0000    0.66230   0.74650   0.37040   Biso      1.000     H          0.120109  
         H2        1.0000    0.74650   0.33770   0.12960   Biso      1.000     H          0.12009500000000001           
         H3        1.0000    0.61110   0.33800   0.19870   Biso      1.000     H          0.126404  
         H4        1.0000    0.25350   0.66230   0.12960   Biso      1.000     H          0.120094  
         H5        1.0000    0.38890   0.66200   0.19870   Biso      1.000     H          0.126404  
         H6        1.0000    0.66230   0.25350   0.37040   Biso      1.000     H          0.120109  
         H7        1.0000    0.33800   0.61110   0.30130   Biso      1.000     H          0.126412  
         H8        1.0000    0.66200   0.61110   0.69870   Biso      1.000     H          0.126412  
         H9        1.0000    0.25350   0.33770   0.87040   Biso      1.000     H          0.120094  
         H10       1.0000    0.38890   0.33800   0.80130   Biso      1.000     H          0.126403  
         H11       1.0000    0.74650   0.66230   0.87040   Biso      1.000     H          0.12009500000000001           
         H12       1.0000    0.61110   0.66200   0.80130   Biso      1.000     H          0.126404  
         H13       1.0000    0.33770   0.74650   0.37040   Biso      1.000     H          0.12011   
         H14       1.0000    0.66230   0.74650   0.62960   Biso      1.000     H          0.12011   
         H15       1.0000    0.66200   0.38890   0.30130   Biso      1.000     H          0.126412  
         H16       1.0000    0.33770   0.25350   0.62960   Biso      1.000     H          0.12010799999999999           
         H17       1.0000    0.33800   0.38890   0.69870   Biso      1.000     H          0.126413  
         H18       1.0000    0.33770   0.25350   0.37040   Biso      1.000     H          0.120109  
         H19       1.0000    0.33800   0.38890   0.30130   Biso      1.000     H          0.126414  
         H20       1.0000    0.25350   0.66230   0.87040   Biso      1.000     H          0.12009600000000001           
         H21       1.0000    0.38890   0.66200   0.80130   Biso      1.000     H          0.126404  
         H22       1.0000    0.74650   0.33770   0.87040   Biso      1.000     H          0.12009600000000001           
         H23       1.0000    0.61110   0.33800   0.80130   Biso      1.000     H          0.126404  
         H24       1.0000    0.33770   0.74650   0.62960   Biso      1.000     H          0.120109  
         H25       1.0000    0.66200   0.61110   0.30130   Biso      1.000     H          0.126413  
         H26       1.0000    0.66230   0.25350   0.62960   Biso      1.000     H          0.12011   
         H27       1.0000    0.66200   0.38890   0.69870   Biso      1.000     H          0.126413  
         H28       1.0000    0.74650   0.66230   0.12960   Biso      1.000     H          0.12009600000000001           
         H29       1.0000    0.61110   0.66200   0.19870   Biso      1.000     H          0.126404  
         H30       1.0000    0.25350   0.33770   0.12960   Biso      1.000     H          0.12009600000000001           
         H31       1.0000    0.38890   0.33800   0.19870   Biso      1.000     H          0.126404  
         H32       1.0000    0.33800   0.61110   0.69870   Biso      1.000     H          0.126414  
         O1        1.0000    0.40750   0.11310   0.44047   Biso      1.000     O          -0.5266029999999999           
         O2        1.0000    0.11310   0.59250   0.94047   Biso      1.000     O          -0.526626           
         O3        1.0000    0.88690   0.40750   0.94047   Biso      1.000     O          -0.526626           
         O4        1.0000    0.40750   0.88690   0.55953   Biso      1.000     O          -0.526602           
         O5        1.0000    0.59250   0.11310   0.55953   Biso      1.000     O          -0.526605           
         O6        1.0000    0.88690   0.59250   0.05953   Biso      1.000     O          -0.526626           
         O7        1.0000    0.11310   0.40750   0.05953   Biso      1.000     O          -0.526626           
         O8        1.0000    0.11310   0.59250   0.05953   Biso      1.000     O          -0.526626           
         O9        1.0000    0.59250   0.88690   0.55953   Biso      1.000     O          -0.526605           
         O10       1.0000    0.88690   0.40750   0.05953   Biso      1.000     O          -0.526626           
         O11       1.0000    0.59250   0.11310   0.44047   Biso      1.000     O          -0.526605           
         O12       1.0000    0.40750   0.88690   0.44047   Biso      1.000     O          -0.5266029999999999           
         O13       1.0000    0.11310   0.40750   0.94047   Biso      1.000     O          -0.526626           
         O14       1.0000    0.88690   0.59250   0.94047   Biso      1.000     O          -0.526626           
         O15       1.0000    0.40750   0.11310   0.55953   Biso      1.000     O          -0.5266029999999999           
         O16       1.0000    0.59250   0.88690   0.44047   Biso      1.000     O          -0.526605 