
##########################################################################
#               Crystallographic Information Format file
#               Produced by PyCifRW module
#
#  This is a CIF file.  CIF has been adopted by the International
#  Union of Crystallography as the standard for data archiving and
#  transmission.
#
#  For information on this file format, follow the CIF links at
#  http://www.iucr.org
##########################################################################

data_image0

_cell_length_a                          9.8135
_cell_length_b                          10.431
_cell_length_c                          11.0671
_cell_angle_alpha                       76.843
_cell_angle_beta                        76.276
_cell_angle_gamma                       65.94
_symmetry_space_group_name_H-M          'P 1'
_symmetry_int_tables_number             1
loop_
  _symmetry_equiv_pos_as_xyz
         'x, y, z' 
loop_
  _atom_site_label
  _atom_site_occupancy
  _atom_site_fract_x
  _atom_site_fract_y
  _atom_site_fract_z
  _atom_site_thermal_displace_type
  _atom_site_B_iso_or_equiv
  _atom_site_type_symbol
  _atom_site_charge
         C1        1.0000    0.20500   0.13220   0.64710   Biso      1.000     C          0.599846  
         C2        1.0000    0.64370   0.50110   0.45480   Biso      1.000     C          -0.091753           
         C3        1.0000    0.35620   0.06510   0.56750   Biso      1.000     C          -0.004786           
         C4        1.0000    0.38520   0.95450   0.50460   Biso      1.000     C          -0.105644           
         C5        1.0000    0.47310   0.11040   0.56230   Biso      1.000     C          -0.111876           
         C6        1.0000    0.79500   0.86780   0.35290   Biso      1.000     C          0.599846  
         C7        1.0000    0.72340   0.38830   0.66440   Biso      1.000     C          0.609846  
         C8        1.0000    0.46220   0.44830   0.62420   Biso      1.000     C          -0.110117           
         C9        1.0000    0.34840   0.01280   0.01680   Biso      1.000     C          -0.036699           
         C10       1.0000    0.44080   0.92960   0.10770   Biso      1.000     C          -0.085865           
         C11       1.0000    0.19030   0.02380   0.03160   Biso      1.000     C          0.69419   
         C12       1.0000    0.39110   0.55220   0.41960   Biso      1.000     C          -0.004614           
         C13       1.0000    0.53780   0.55170   0.37580   Biso      1.000     C          -0.110116           
         C14       1.0000    0.35630   0.49890   0.54520   Biso      1.000     C          -0.091751           
         C15       1.0000    0.64380   0.93490   0.43250   Biso      1.000     C          -0.004786           
         C16       1.0000    0.41030   0.08500   0.91040   Biso      1.000     C          -0.100139           
         C17       1.0000    0.60890   0.44780   0.58040   Biso      1.000     C          -0.004613           
         C18       1.0000    0.80970   0.97620   0.96840   Biso      1.000     C          0.69419   
         C19       1.0000    0.55920   0.07040   0.89230   Biso      1.000     C          -0.085861           
         C20       1.0000    0.27660   0.61170   0.33560   Biso      1.000     C          0.609846  
         C21       1.0000    0.61480   0.04550   0.49540   Biso      1.000     C          -0.105642           
         C22       1.0000    0.52690   0.88960   0.43770   Biso      1.000     C          -0.111874           
         C23       1.0000    0.65160   0.98720   0.98320   Biso      1.000     C          -0.0367   
         C24       1.0000    0.58970   0.91500   0.08960   Biso      1.000     C          -0.100135           
         H1        1.0000    0.69170   0.07690   0.49280   Biso      1.000     H          0.125021  
         H2        1.0000    0.26010   0.49740   0.57630   Biso      1.000     H          0.127612  
         H3        1.0000    0.56390   0.58620   0.29200   Biso      1.000     H          0.118995  
         H4        1.0000    0.40070   0.88380   0.18090   Biso      1.000     H          0.123625  
         H5        1.0000    0.45580   0.18490   0.60420   Biso      1.000     H          0.109198  
         H6        1.0000    0.30830   0.92310   0.50720   Biso      1.000     H          0.125021  
         H7        1.0000    0.73990   0.50260   0.42370   Biso      1.000     H          0.127612  
         H8        1.0000    0.43610   0.41380   0.70800   Biso      1.000     H          0.118995  
         H9        1.0000    0.59930   0.11620   0.81910   Biso      1.000     H          0.123624  
         H10       1.0000    0.65000   0.85620   0.14910   Biso      1.000     H          0.115733  
         H11       1.0000    0.54420   0.81510   0.39580   Biso      1.000     H          0.109198  
         H12       1.0000    0.35000   0.14380   0.85090   Biso      1.000     H          0.115733  
         Ho1       1.0000    0.94486   0.22804   0.82318   Biso      1.000     Ho          2.035713  
         Ho2       1.0000    0.05514   0.77196   0.17682   Biso      1.000     Ho          2.035713  
         O1        1.0000    0.85760   0.04770   0.87250   Biso      1.000     O          -0.657788           
         O2        1.0000    0.88510   0.89810   0.05230   Biso      1.000     O          -0.733989           
         O3        1.0000    0.85870   0.37500   0.62430   Biso      1.000     O          -0.638499           
         O4        1.0000    0.17190   0.24790   0.68260   Biso      1.000     O          -0.636721           
         O5        1.0000    0.11570   0.06510   0.68060   Biso      1.000     O          -0.624823           
         O6        1.0000    0.68850   0.35100   0.78090   Biso      1.000     O          -0.716473           
         O7        1.0000    0.14240   0.95230   0.12750   Biso      1.000     O          -0.657788           
         O8        1.0000    0.11490   0.10190   0.94770   Biso      1.000     O          -0.733989           
         O9        1.0000    0.14130   0.62500   0.37570   Biso      1.000     O          -0.638499           
         O10       1.0000    0.82810   0.75210   0.31740   Biso      1.000     O          -0.636721           
         O11       1.0000    0.88430   0.93490   0.31940   Biso      1.000     O          -0.624823           
         O12       1.0000    0.31150   0.64900   0.21910   Biso      1.000     O          -0.716472 