
##########################################################################
#               Crystallographic Information Format file
#               Produced by PyCifRW module
#
#  This is a CIF file.  CIF has been adopted by the International
#  Union of Crystallography as the standard for data archiving and
#  transmission.
#
#  For information on this file format, follow the CIF links at
#  http://www.iucr.org
##########################################################################

data_image0

_cell_length_a                          9.7863
_cell_length_b                          10.2967
_cell_length_c                          11.0263
_cell_angle_alpha                       76.898
_cell_angle_beta                        76.24
_cell_angle_gamma                       65.487
_symmetry_space_group_name_H-M          'P 1'
_symmetry_int_tables_number             1
loop_
  _symmetry_equiv_pos_as_xyz
         'x, y, z' 
loop_
  _atom_site_label
  _atom_site_occupancy
  _atom_site_fract_x
  _atom_site_fract_y
  _atom_site_fract_z
  _atom_site_thermal_displace_type
  _atom_site_B_iso_or_equiv
  _atom_site_type_symbol
  _atom_site_charge
         C1        1.0000    0.47150   0.11270   0.06420   Biso      1.000     C          -0.10634300000000001          
         C2        1.0000    0.35540   0.06600   0.06780   Biso      1.000     C          0.01223   
         C3        1.0000    0.38500   0.95340   0.00320   Biso      1.000     C          -0.088265           
         C4        1.0000    0.20300   0.13240   0.14820   Biso      1.000     C          0.545298  
         C5        1.0000    0.39130   0.55160   0.91940   Biso      1.000     C          -0.019746           
         C6        1.0000    0.53850   0.54990   0.87350   Biso      1.000     C          -0.101556           
         C7        1.0000    0.35340   0.50170   0.04610   Biso      1.000     C          -0.092699           
         C8        1.0000    0.27370   0.61220   0.83310   Biso      1.000     C          0.5495979999999999  
         C9        1.0000    0.64990   0.98700   0.48240   Biso      1.000     C          -0.031623000000000005         
         C10       1.0000    0.55840   0.07060   0.39140   Biso      1.000     C          -0.097872           
         C11       1.0000    0.59040   0.91550   0.59090   Biso      1.000     C          -0.10978399999999999          
         C12       1.0000    0.81050   0.97810   0.46700   Biso      1.000     C          0.622444  
         C13       1.0000    0.64460   0.93400   0.93220   Biso      1.000     C          0.012231  
         C14       1.0000    0.61500   0.04660   0.99680   Biso      1.000     C          -0.088267           
         C15       1.0000    0.52850   0.88730   0.93580   Biso      1.000     C          -0.10634500000000001          
         C16       1.0000    0.79700   0.86760   0.85180   Biso      1.000     C          0.5453060000000001  
         C17       1.0000    0.18950   0.02190   0.53300   Biso      1.000     C          0.6224430000000001  
         C18       1.0000    0.44160   0.92940   0.60860   Biso      1.000     C          -0.09786900000000001          
         C19       1.0000    0.40960   0.08450   0.40910   Biso      1.000     C          -0.10978099999999999          
         C20       1.0000    0.72630   0.38780   0.16690   Biso      1.000     C          0.549608  
         C21       1.0000    0.64660   0.49830   0.95390   Biso      1.000     C          -0.092701           
         C22       1.0000    0.46150   0.45010   0.12650   Biso      1.000     C          -0.10155700000000001          
         C23       1.0000    0.60870   0.44840   0.08060   Biso      1.000     C          -0.019744           
         C24       1.0000    0.35010   0.01300   0.51760   Biso      1.000     C          -0.031620999999999996         
         H1        1.0000    0.43560   0.41680   0.21100   Biso      1.000     H          0.12246199999999999           
         H2        1.0000    0.74400   0.49740   0.92270   Biso      1.000     H          0.127648  
         H3        1.0000    0.40150   0.88280   0.68180   Biso      1.000     H          0.11731300000000001           
         H4        1.0000    0.34860   0.14150   0.34870   Biso      1.000     H          0.11294000000000001           
         H5        1.0000    0.30790   0.92210   0.00530   Biso      1.000     H          0.12756099999999998           
         H6        1.0000    0.45270   0.18800   0.10700   Biso      1.000     H          0.11342999999999999           
         H7        1.0000    0.56440   0.58320   0.78900   Biso      1.000     H          0.12246099999999999           
         H8        1.0000    0.59850   0.11720   0.31820   Biso      1.000     H          0.11731300000000001           
         H9        1.0000    0.65140   0.85850   0.65130   Biso      1.000     H          0.11294100000000001           
         H10       1.0000    0.69210   0.07790   0.99470   Biso      1.000     H          0.12756099999999998           
         H11       1.0000    0.54730   0.81200   0.89300   Biso      1.000     H          0.11342999999999999           
         H12       1.0000    0.25600   0.50260   0.07730   Biso      1.000     H          0.127649  
         O1        1.0000    0.88530   0.90050   0.55340   Biso      1.000     O          -0.599989           
         O2        1.0000    0.11330   0.06550   0.18030   Biso      1.000     O          -0.49173999999999995          
         O3        1.0000    0.85920   0.04930   0.37060   Biso      1.000     O          -0.541249           
         O4        1.0000    0.31430   0.64980   0.71810   Biso      1.000     O          -0.532413           
         O5        1.0000    0.13850   0.62580   0.87610   Biso      1.000     O          -0.483342           
         O6        1.0000    0.16900   0.25000   0.18620   Biso      1.000     O          -0.49788999999999994          
         O7        1.0000    0.88670   0.93450   0.81970   Biso      1.000     O          -0.49174399999999996          
         O8        1.0000    0.11470   0.09950   0.44660   Biso      1.000     O          -0.5999869999999999           
         O9        1.0000    0.68570   0.35020   0.28190   Biso      1.000     O          -0.5324220000000001           
         O10       1.0000    0.86150   0.37420   0.12390   Biso      1.000     O          -0.483357           
         O11       1.0000    0.83100   0.75000   0.81380   Biso      1.000     O          -0.497891           
         O12       1.0000    0.14080   0.95070   0.62940   Biso      1.000     O          -0.54125  
         Yb1       1.0000    0.05571   0.77186   0.67586   Biso      1.000     Yb          1.34359   
         Yb2       1.0000    0.94429   0.22814   0.32414   Biso      1.000     Yb          1.343593 