
##########################################################################
#               Crystallographic Information Format file
#               Produced by PyCifRW module
#
#  This is a CIF file.  CIF has been adopted by the International
#  Union of Crystallography as the standard for data archiving and
#  transmission.
#
#  For information on this file format, follow the CIF links at
#  http://www.iucr.org
##########################################################################

data_image0

_cell_length_a                          9.8283
_cell_length_b                          10.4362
_cell_length_c                          11.076
_cell_angle_alpha                       76.894
_cell_angle_beta                        76.296
_cell_angle_gamma                       65.999
_symmetry_space_group_name_H-M          'P 1'
_symmetry_int_tables_number             1
loop_
  _symmetry_equiv_pos_as_xyz
         'x, y, z' 
loop_
  _atom_site_label
  _atom_site_occupancy
  _atom_site_fract_x
  _atom_site_fract_y
  _atom_site_fract_z
  _atom_site_thermal_displace_type
  _atom_site_B_iso_or_equiv
  _atom_site_type_symbol
  _atom_site_charge
         C1        1.0000    0.58950   0.91590   0.08980   Biso      1.000     C          -0.102233           
         C2        1.0000    0.72360   0.38930   0.66510   Biso      1.000     C          0.5967859999999999  
         C3        1.0000    0.64390   0.50100   0.45440   Biso      1.000     C          -0.09494  
         C4        1.0000    0.46150   0.44870   0.62510   Biso      1.000     C          -0.112724           
         C5        1.0000    0.60800   0.44860   0.57930   Biso      1.000     C          -0.004845           
         C6        1.0000    0.20540   0.13160   0.64560   Biso      1.000     C          0.597577  
         C7        1.0000    0.47310   0.11060   0.56270   Biso      1.000     C          -0.11160899999999999          
         C8        1.0000    0.38460   0.95350   0.50390   Biso      1.000     C          -0.104651           
         C9        1.0000    0.35690   0.06510   0.56740   Biso      1.000     C          -0.007347           
         C10       1.0000    0.80960   0.97680   0.96690   Biso      1.000     C          0.695336  
         C11       1.0000    0.64310   0.93490   0.43260   Biso      1.000     C          -0.007348           
         C12       1.0000    0.61540   0.04650   0.49610   Biso      1.000     C          -0.104649           
         C13       1.0000    0.52690   0.88940   0.43730   Biso      1.000     C          -0.111606           
         C14       1.0000    0.79460   0.86840   0.35440   Biso      1.000     C          0.597577  
         C15       1.0000    0.39200   0.55140   0.42070   Biso      1.000     C          -0.004847           
         C16       1.0000    0.53850   0.55130   0.37490   Biso      1.000     C          -0.112723           
         C17       1.0000    0.35610   0.49900   0.54560   Biso      1.000     C          -0.094938           
         C18       1.0000    0.27640   0.61070   0.33490   Biso      1.000     C          0.596787  
         C19       1.0000    0.35070   0.01390   0.01700   Biso      1.000     C          -0.036245           
         C20       1.0000    0.44000   0.92920   0.10730   Biso      1.000     C          -0.09021900000000001          
         C21       1.0000    0.41050   0.08410   0.91020   Biso      1.000     C          -0.10223  
         C22       1.0000    0.19040   0.02320   0.03310   Biso      1.000     C          0.695335  
         C23       1.0000    0.64930   0.98610   0.98300   Biso      1.000     C          -0.036242           
         C24       1.0000    0.56000   0.07080   0.89270   Biso      1.000     C          -0.09022000000000001          
         Dy1       1.0000    0.94493   0.22808   0.82291   Biso      1.000     Dy          2.0311619999999997  
         Dy2       1.0000    0.05507   0.77192   0.17709   Biso      1.000     Dy          2.0311619999999997  
         H1        1.0000    0.30780   0.92220   0.50630   Biso      1.000     H          0.126612  
         H2        1.0000    0.45520   0.18490   0.60490   Biso      1.000     H          0.11165599999999999           
         H3        1.0000    0.43570   0.41490   0.70900   Biso      1.000     H          0.120102  
         H4        1.0000    0.74000   0.50230   0.42380   Biso      1.000     H          0.12791   
         H5        1.0000    0.60030   0.11820   0.82100   Biso      1.000     H          0.125199  
         H6        1.0000    0.35060   0.14040   0.84990   Biso      1.000     H          0.116691  
         H7        1.0000    0.69220   0.07780   0.49370   Biso      1.000     H          0.126612  
         H8        1.0000    0.54480   0.81510   0.39510   Biso      1.000     H          0.11165599999999999           
         H9        1.0000    0.56430   0.58510   0.29100   Biso      1.000     H          0.120101  
         H10       1.0000    0.26000   0.49770   0.57620   Biso      1.000     H          0.12791   
         H11       1.0000    0.39970   0.88180   0.17900   Biso      1.000     H          0.125199  
         H12       1.0000    0.64940   0.85960   0.15010   Biso      1.000     H          0.116691  
         O1        1.0000    0.14200   0.62320   0.37681   Biso      1.000     O          -0.633922           
         O2        1.0000    0.31490   0.65000   0.22040   Biso      1.000     O          -0.703287           
         O3        1.0000    0.88330   0.93530   0.32183   Biso      1.000     O          -0.620313           
         O4        1.0000    0.82766   0.75242   0.31833   Biso      1.000     O          -0.638215           
         O5        1.0000    0.88400   0.89770   0.05058   Biso      1.000     O          -0.735861           
         O6        1.0000    0.68510   0.35000   0.77960   Biso      1.000     O          -0.703287           
         O7        1.0000    0.85800   0.37680   0.62319   Biso      1.000     O          -0.633922           
         O8        1.0000    0.11670   0.06470   0.67817   Biso      1.000     O          -0.620313           
         O9        1.0000    0.17234   0.24758   0.68167   Biso      1.000     O          -0.638215           
         O10       1.0000    0.14268   0.95262   0.12770   Biso      1.000     O          -0.652625           
         O11       1.0000    0.85732   0.04738   0.87230   Biso      1.000     O          -0.652625           
         O12       1.0000    0.11600   0.10230   0.94942   Biso      1.000     O          -0.735861 