
##########################################################################
#               Crystallographic Information Format file
#               Produced by PyCifRW module
#
#  This is a CIF file.  CIF has been adopted by the International
#  Union of Crystallography as the standard for data archiving and
#  transmission.
#
#  For information on this file format, follow the CIF links at
#  http://www.iucr.org
##########################################################################

data_image0

_cell_length_a                          9.8113
_cell_length_b                          10.4188
_cell_length_c                          11.0768
_cell_angle_alpha                       76.721
_cell_angle_beta                        76.242
_cell_angle_gamma                       65.932
_symmetry_space_group_name_H-M          'P 1'
_symmetry_int_tables_number             1
loop_
  _symmetry_equiv_pos_as_xyz
         'x, y, z' 
loop_
  _atom_site_label
  _atom_site_occupancy
  _atom_site_fract_x
  _atom_site_fract_y
  _atom_site_fract_z
  _atom_site_thermal_displace_type
  _atom_site_B_iso_or_equiv
  _atom_site_type_symbol
  _atom_site_charge
         C1        1.0000    0.40990   0.08480   0.40970   Biso      1.000     C          -0.101377           
         C2        1.0000    0.64460   0.50100   0.95410   Biso      1.000     C          -0.09497699999999999          
         C3        1.0000    0.72420   0.38950   0.16540   Biso      1.000     C          0.598627  
         C4        1.0000    0.35070   0.01330   0.51680   Biso      1.000     C          -0.035709           
         C5        1.0000    0.44020   0.92930   0.60740   Biso      1.000     C          -0.089103           
         C6        1.0000    0.59010   0.91520   0.59030   Biso      1.000     C          -0.101376           
         C7        1.0000    0.19030   0.02300   0.53280   Biso      1.000     C          0.6952649999999999  
         C8        1.0000    0.46150   0.44910   0.12490   Biso      1.000     C          -0.11371400000000001          
         C9        1.0000    0.64350   0.93410   0.93280   Biso      1.000     C          -0.006675           
         C10       1.0000    0.61550   0.04630   0.99590   Biso      1.000     C          -0.10492  
         C11       1.0000    0.79480   0.86770   0.85360   Biso      1.000     C          0.59659   
         C12       1.0000    0.39210   0.55170   0.92070   Biso      1.000     C          -0.004543           
         C13       1.0000    0.53850   0.55090   0.87510   Biso      1.000     C          -0.11371400000000001          
         C14       1.0000    0.35540   0.49900   0.04590   Biso      1.000     C          -0.094976           
         C15       1.0000    0.27580   0.61050   0.83460   Biso      1.000     C          0.598627  
         C16       1.0000    0.52700   0.88920   0.93730   Biso      1.000     C          -0.112374           
         C17       1.0000    0.60790   0.44830   0.07930   Biso      1.000     C          -0.004542           
         C18       1.0000    0.20520   0.13230   0.14640   Biso      1.000     C          0.596589  
         C19       1.0000    0.38450   0.95370   0.00410   Biso      1.000     C          -0.10491800000000001          
         C20       1.0000    0.80970   0.97700   0.46720   Biso      1.000     C          0.6952649999999999  
         C21       1.0000    0.64930   0.98670   0.48320   Biso      1.000     C          -0.035709           
         C22       1.0000    0.55980   0.07070   0.39260   Biso      1.000     C          -0.089103           
         C23       1.0000    0.35650   0.06590   0.06720   Biso      1.000     C          -0.006675           
         C24       1.0000    0.47300   0.11080   0.06270   Biso      1.000     C          -0.112373           
         H1        1.0000    0.60050   0.11760   0.32040   Biso      1.000     H          0.125501  
         H2        1.0000    0.25920   0.49750   0.07660   Biso      1.000     H          0.128366  
         H3        1.0000    0.56420   0.58440   0.79100   Biso      1.000     H          0.119152  
         H4        1.0000    0.69250   0.07780   0.99320   Biso      1.000     H          0.126085  
         H5        1.0000    0.34960   0.14180   0.34970   Biso      1.000     H          0.11796199999999998           
         H6        1.0000    0.39950   0.88240   0.67960   Biso      1.000     H          0.125501  
         H7        1.0000    0.74080   0.50250   0.92340   Biso      1.000     H          0.128366  
         H8        1.0000    0.43580   0.41560   0.20900   Biso      1.000     H          0.119152  
         H9        1.0000    0.30750   0.92220   0.00680   Biso      1.000     H          0.126085  
         H10       1.0000    0.45530   0.18500   0.10490   Biso      1.000     H          0.11210099999999999           
         H11       1.0000    0.65040   0.85820   0.65030   Biso      1.000     H          0.11796199999999998           
         H12       1.0000    0.54470   0.81500   0.89510   Biso      1.000     H          0.11210099999999999           
         Ho1       1.0000    0.94522   0.22825   0.32292   Biso      1.000     Ho          2.0304860000000002  
         Ho2       1.0000    0.05478   0.77175   0.67708   Biso      1.000     Ho          2.0304849999999997  
         O1        1.0000    0.11570   0.06570   0.17882   Biso      1.000     O          -0.620222           
         O2        1.0000    0.17280   0.24810   0.18212   Biso      1.000     O          -0.637045           
         O3        1.0000    0.68620   0.35050   0.27942   Biso      1.000     O          -0.7023050000000001           
         O4        1.0000    0.85910   0.37580   0.12267   Biso      1.000     O          -0.636279           
         O5        1.0000    0.14190   0.95200   0.62777   Biso      1.000     O          -0.653738           
         O6        1.0000    0.11550   0.10260   0.44864   Biso      1.000     O          -0.737156           
         O7        1.0000    0.88430   0.93430   0.82118   Biso      1.000     O          -0.620223           
         O8        1.0000    0.82720   0.75190   0.81788   Biso      1.000     O          -0.637045           
         O9        1.0000    0.31380   0.64950   0.72058   Biso      1.000     O          -0.7023050000000001           
         O10       1.0000    0.14090   0.62420   0.87733   Biso      1.000     O          -0.636279           
         O11       1.0000    0.85810   0.04800   0.37223   Biso      1.000     O          -0.6537390000000001           
         O12       1.0000    0.88450   0.89740   0.55136   Biso      1.000     O          -0.737156 