
##########################################################################
#               Crystallographic Information Format file
#               Produced by PyCifRW module
#
#  This is a CIF file.  CIF has been adopted by the International
#  Union of Crystallography as the standard for data archiving and
#  transmission.
#
#  For information on this file format, follow the CIF links at
#  http://www.iucr.org
##########################################################################

data_image0

_cell_length_a                          12.796
_cell_length_b                          25.625
_cell_length_c                          16.112
_cell_angle_alpha                       90
_cell_angle_beta                        119.955
_cell_angle_gamma                       90
_symmetry_space_group_name_H-M          'P 1'
_symmetry_int_tables_number             1
loop_
  _symmetry_equiv_pos_as_xyz
         'x, y, z' 
loop_
  _atom_site_label
  _atom_site_occupancy
  _atom_site_fract_x
  _atom_site_fract_y
  _atom_site_fract_z
  _atom_site_thermal_displace_type
  _atom_site_B_iso_or_equiv
  _atom_site_type_symbol
  _atom_site_charge
         C1        1.0000    0.21000   0.44400   0.00960   Biso      1.000     C          0.033411  
         C2        1.0000    0.38600   0.62280   0.85700   Biso      1.000     C          -0.222304           
         C3        1.0000    0.09700   0.94140   0.39600   Biso      1.000     C          0.060355  
         C4        1.0000    0.45800   0.65300   0.83400   Biso      1.000     C          0.04117   
         C5        1.0000    0.17100   0.91350   0.37100   Biso      1.000     C          -0.228628           
         C6        1.0000    0.69500   0.73360   0.19130   Biso      1.000     C          0.047832  
         C7        1.0000    0.26900   0.88560   0.44490   Biso      1.000     C          0.082312  
         C8        1.0000    0.75200   0.70420   0.15200   Biso      1.000     C          -0.206563           
         C9        1.0000    0.72800   0.65240   0.13910   Biso      1.000     C          0.090996  
         C10       1.0000    0.28100   0.88870   0.53300   Biso      1.000     C          -0.209424           
         C11       1.0000    0.64800   0.63060   0.16420   Biso      1.000     C          -0.208246           
         C12       1.0000    0.20000   0.91860   0.54900   Biso      1.000     C          0.040153  
         C13       1.0000    0.59900   0.66270   0.20490   Biso      1.000     C          0.042097  
         C14       1.0000    0.46900   0.78150   0.43200   Biso      1.000     C          0.035121  
         C15       1.0000    0.31900   0.76390   0.10900   Biso      1.000     C          0.053358  
         C16       1.0000    0.19600   0.76430   0.04700   Biso      1.000     C          -0.207834           
         C17       1.0000    0.91700   0.61780   0.15000   Biso      1.000     C          -0.228502           
         C18       1.0000    0.79400   0.61760   0.10130   Biso      1.000     C          0.084142  
         C19       1.0000    0.13000   0.73200   0.07000   Biso      1.000     C          0.092685  
         C20       1.0000    0.73100   0.58640   0.02200   Biso      1.000     C          -0.190866           
         C21       1.0000    0.18800   0.70500   0.15700   Biso      1.000     C          -0.209917           
         C22       1.0000    0.79000   0.55600   0.99040   Biso      1.000     C          0.033429  
         C23       1.0000    0.31300   0.70960   0.21700   Biso      1.000     C          0.041237  
         C24       1.0000    0.80500   0.69100   0.90100   Biso      1.000     C          0.052663  
         C25       1.0000    0.93000   0.68850   0.95600   Biso      1.000     C          -0.200011           
         C26       1.0000    0.99200   0.73100   0.00800   Biso      1.000     C          0.106812  
         C27       1.0000    0.93300   0.77490   0.00700   Biso      1.000     C          -0.229726           
         C28       1.0000    0.97300   0.58400   0.11400   Biso      1.000     C          0.039917  
         C29       1.0000    0.35400   0.64350   0.92000   Biso      1.000     C          0.075809  
         C30       1.0000    0.40100   0.69110   0.95900   Biso      1.000     C          -0.196298           
         C31       1.0000    0.40100   0.80890   0.45900   Biso      1.000     C          -0.196285           
         C32       1.0000    0.73100   0.91360   0.52200   Biso      1.000     C          -0.190871           
         C33       1.0000    0.93300   0.72510   0.50700   Biso      1.000     C          -0.229743           
         C34       1.0000    0.99200   0.76900   0.50800   Biso      1.000     C          0.106819  
         C35       1.0000    0.79400   0.88240   0.60130   Biso      1.000     C          0.084143  
         C36       1.0000    0.93000   0.81150   0.45600   Biso      1.000     C          -0.200002           
         C37       1.0000    0.91700   0.88220   0.65000   Biso      1.000     C          -0.228497           
         C38       1.0000    0.80500   0.80900   0.40100   Biso      1.000     C          0.052662  
         C39       1.0000    0.97300   0.91600   0.61400   Biso      1.000     C          0.039917  
         C40       1.0000    0.31300   0.79040   0.71700   Biso      1.000     C          0.041236  
         C41       1.0000    0.59900   0.83730   0.70490   Biso      1.000     C          0.042092  
         C42       1.0000    0.18800   0.79500   0.65700   Biso      1.000     C          -0.209916           
         C43       1.0000    0.13000   0.76800   0.57000   Biso      1.000     C          0.092674  
         C44       1.0000    0.64800   0.86940   0.66420   Biso      1.000     C          -0.208241           
         C45       1.0000    0.19600   0.73570   0.54700   Biso      1.000     C          -0.207821           
         C46       1.0000    0.72800   0.84760   0.63910   Biso      1.000     C          0.090992  
         C47       1.0000    0.31900   0.73610   0.60900   Biso      1.000     C          0.053357  
         C48       1.0000    0.75200   0.79580   0.65200   Biso      1.000     C          -0.206558           
         C49       1.0000    0.20000   0.58140   0.04900   Biso      1.000     C          0.040155  
         C50       1.0000    0.69500   0.76640   0.69130   Biso      1.000     C          0.047832  
         C51       1.0000    0.28100   0.61130   0.03300   Biso      1.000     C          -0.209437           
         C52       1.0000    0.26900   0.61440   0.94490   Biso      1.000     C          0.082324  
         C53       1.0000    0.45800   0.84700   0.33400   Biso      1.000     C          0.041169  
         C54       1.0000    0.17100   0.58650   0.87100   Biso      1.000     C          -0.22863  
         C55       1.0000    0.38600   0.87720   0.35700   Biso      1.000     C          -0.222303           
         C56       1.0000    0.09700   0.55860   0.89600   Biso      1.000     C          0.060356  
         C57       1.0000    0.35400   0.85650   0.42000   Biso      1.000     C          0.075815  
         C58       1.0000    0.46900   0.71850   0.93200   Biso      1.000     C          0.035142  
         C59       1.0000    0.80800   0.77510   0.93700   Biso      1.000     C          0.073909  
         C60       1.0000    0.80800   0.72490   0.43700   Biso      1.000     C          0.073911  
         C61       1.0000    0.79000   0.94400   0.49040   Biso      1.000     C          0.03343   
         C62       1.0000    0.64600   0.14350   0.58000   Biso      1.000     C          0.075807  
         C63       1.0000    0.53100   0.28150   0.06800   Biso      1.000     C          0.035121  
         C64       1.0000    0.61400   0.12280   0.64300   Biso      1.000     C          -0.222301           
         C65       1.0000    0.90300   0.44140   0.10400   Biso      1.000     C          0.060355  
         C66       1.0000    0.54200   0.15300   0.66600   Biso      1.000     C          0.041169  
         C67       1.0000    0.82900   0.41350   0.12900   Biso      1.000     C          -0.228628           
         C68       1.0000    0.30500   0.23360   0.30870   Biso      1.000     C          0.047832  
         C69       1.0000    0.73100   0.38560   0.05510   Biso      1.000     C          0.082312  
         C70       1.0000    0.24800   0.20420   0.34800   Biso      1.000     C          -0.206563           
         C71       1.0000    0.27200   0.15240   0.36090   Biso      1.000     C          0.090996  
         C72       1.0000    0.71900   0.38870   0.96700   Biso      1.000     C          -0.209424           
         C73       1.0000    0.35200   0.13060   0.33580   Biso      1.000     C          -0.208246           
         C74       1.0000    0.80000   0.41860   0.95100   Biso      1.000     C          0.040153  
         C75       1.0000    0.19200   0.22490   0.06300   Biso      1.000     C          0.073911  
         C76       1.0000    0.40100   0.16270   0.29510   Biso      1.000     C          0.042097  
         C77       1.0000    0.02700   0.08400   0.38600   Biso      1.000     C          0.039917  
         C78       1.0000    0.80400   0.26430   0.45300   Biso      1.000     C          -0.207834           
         C79       1.0000    0.08300   0.11780   0.35000   Biso      1.000     C          -0.228502           
         C80       1.0000    0.20600   0.11760   0.39870   Biso      1.000     C          0.084142  
         C81       1.0000    0.87000   0.23200   0.43000   Biso      1.000     C          0.092686  
         C82       1.0000    0.26900   0.08640   0.47800   Biso      1.000     C          -0.190866           
         C83       1.0000    0.81200   0.20500   0.34300   Biso      1.000     C          -0.209917           
         C84       1.0000    0.21000   0.05600   0.50960   Biso      1.000     C          0.033429  
         C85       1.0000    0.68700   0.20960   0.28300   Biso      1.000     C          0.041237  
         C86       1.0000    0.19500   0.19100   0.59900   Biso      1.000     C          0.052663  
         C87       1.0000    0.07000   0.18850   0.54400   Biso      1.000     C          -0.200011           
         C88       1.0000    0.00800   0.23100   0.49200   Biso      1.000     C          0.106812  
         C89       1.0000    0.68100   0.26390   0.39100   Biso      1.000     C          0.053359  
         C90       1.0000    0.06700   0.27490   0.49300   Biso      1.000     C          -0.229726           
         C91       1.0000    0.59900   0.19110   0.54100   Biso      1.000     C          -0.196298           
         C92       1.0000    0.53100   0.21850   0.56800   Biso      1.000     C          0.035141  
         C93       1.0000    0.26900   0.41360   0.97800   Biso      1.000     C          -0.190852           
         C94       1.0000    0.06700   0.22510   0.99300   Biso      1.000     C          -0.229743           
         C95       1.0000    0.00800   0.26900   0.99200   Biso      1.000     C          0.106819  
         C96       1.0000    0.20600   0.38240   0.89870   Biso      1.000     C          0.084142  
         C97       1.0000    0.07000   0.31150   0.04400   Biso      1.000     C          -0.200002           
         C98       1.0000    0.08300   0.38220   0.85000   Biso      1.000     C          -0.228498           
         C99       1.0000    0.19500   0.30900   0.09900   Biso      1.000     C          0.052662  
         C100      1.0000    0.02700   0.41600   0.88600   Biso      1.000     C          0.039917  
         C101      1.0000    0.68700   0.29040   0.78300   Biso      1.000     C          0.041236  
         C102      1.0000    0.40100   0.33730   0.79510   Biso      1.000     C          0.042091  
         C103      1.0000    0.81200   0.29500   0.84300   Biso      1.000     C          -0.209916           
         C104      1.0000    0.87000   0.26800   0.93000   Biso      1.000     C          0.092674  
         C105      1.0000    0.59900   0.30890   0.04100   Biso      1.000     C          -0.196285           
         C106      1.0000    0.35200   0.36940   0.83580   Biso      1.000     C          -0.208241           
         C107      1.0000    0.27200   0.34760   0.86090   Biso      1.000     C          0.090992  
         C108      1.0000    0.68100   0.23610   0.89100   Biso      1.000     C          0.053357  
         C109      1.0000    0.24800   0.29580   0.84800   Biso      1.000     C          -0.206559           
         C110      1.0000    0.80000   0.08140   0.45100   Biso      1.000     C          0.040154  
         C111      1.0000    0.30500   0.26640   0.80870   Biso      1.000     C          0.047832  
         C112      1.0000    0.71900   0.11130   0.46700   Biso      1.000     C          -0.209437           
         C113      1.0000    0.73100   0.11440   0.55510   Biso      1.000     C          0.082324  
         C114      1.0000    0.54200   0.34700   0.16600   Biso      1.000     C          0.041168  
         C115      1.0000    0.82900   0.08650   0.62900   Biso      1.000     C          -0.228629           
         C116      1.0000    0.61400   0.37720   0.14300   Biso      1.000     C          -0.222303           
         C117      1.0000    0.90300   0.05860   0.60400   Biso      1.000     C          0.060355  
         C118      1.0000    0.64600   0.35650   0.08000   Biso      1.000     C          0.075815  
         C119      1.0000    0.80400   0.23570   0.95300   Biso      1.000     C          -0.207821           
         C120      1.0000    0.19200   0.27510   0.56300   Biso      1.000     C          0.073909  
         Cu1       1.0000    0.43990   0.24408   0.70590   Biso      1.000     Cu          0.303415  
         Cu2       1.0000    0.43990   0.25592   0.20590   Biso      1.000     Cu          0.303415  
         Cu3       1.0000    0.56010   0.74408   0.79410   Biso      1.000     Cu          0.303414  
         Cu4       1.0000    0.00000   0.50000   0.00000   Biso      1.000     Cu          0.279301  
         Cu5       1.0000    0.56010   0.75592   0.29410   Biso      1.000     Cu          0.303414  
         Cu6       1.0000    0.00000   0.00000   0.50000   Biso      1.000     Cu          0.279296  
         H1        1.0000    0.85600   0.31610   0.82460   Biso      1.000     H          0.11929   
         H2        1.0000    0.94330   0.41730   0.85350   Biso      1.000     H          0.072649  
         H3        1.0000    0.64870   0.30990   0.72710   Biso      1.000     H          0.083319  
         H4        1.0000    0.03790   0.36120   0.79690   Biso      1.000     H          0.127928  
         H5        1.0000    0.23700   0.33850   0.13300   Biso      1.000     H          0.08043   
         H6        1.0000    0.03000   0.34190   0.04280   Biso      1.000     H          0.130322  
         H7        1.0000    0.35320   0.41370   0.01060   Biso      1.000     H          0.118606  
         H8        1.0000    0.03000   0.19740   0.95150   Biso      1.000     H          0.133124  
         H9        1.0000    0.25400   0.46430   0.06390   Biso      1.000     H          0.08504   
         H10       1.0000    0.03790   0.13880   0.29690   Biso      1.000     H          0.127929  
         H11       1.0000    0.44970   0.35250   0.77360   Biso      1.000     H          0.07544   
         H12       1.0000    0.84000   0.28530   0.50740   Biso      1.000     H          0.130537  
         H13       1.0000    0.35320   0.08630   0.51060   Biso      1.000     H          0.118607  
         H14       1.0000    0.25400   0.03570   0.56390   Biso      1.000     H          0.085039  
         H15       1.0000    0.85600   0.18390   0.32460   Biso      1.000     H          0.119291  
         H16       1.0000    0.76960   0.80740   0.91950   Biso      1.000     H          0.069658  
         H17       1.0000    0.97000   0.80260   0.04850   Biso      1.000     H          0.133122  
         H18       1.0000    0.64870   0.19010   0.22710   Biso      1.000     H          0.083319  
         H19       1.0000    0.97000   0.65810   0.95720   Biso      1.000     H          0.130322  
         H20       1.0000    0.23040   0.19260   0.08050   Biso      1.000     H          0.069659  
         H21       1.0000    0.84000   0.21470   0.00740   Biso      1.000     H          0.130536  
         H22       1.0000    0.37190   0.40460   0.84610   Biso      1.000     H          0.127515  
         H23       1.0000    0.63430   0.21880   0.91190   Biso      1.000     H          0.069399  
         H24       1.0000    0.78840   0.42040   0.88960   Biso      1.000     H          0.071419  
         H25       1.0000    0.44970   0.14750   0.27360   Biso      1.000     H          0.075439  
         H26       1.0000    0.65610   0.37100   0.91600   Biso      1.000     H          0.11276   
         H27       1.0000    0.37190   0.09540   0.34610   Biso      1.000     H          0.127516  
         H28       1.0000    0.19610   0.21970   0.36560   Biso      1.000     H          0.126705  
         H29       1.0000    0.84340   0.41330   0.19170   Biso      1.000     H          0.122158  
         H30       1.0000    0.28650   0.26890   0.29820   Biso      1.000     H          0.074943  
         H31       1.0000    0.96660   0.46000   0.15250   Biso      1.000     H          0.067571  
         H32       1.0000    0.51890   0.13850   0.70680   Biso      1.000     H          0.071861  
         H33       1.0000    0.50170   0.24900   0.04030   Biso      1.000     H          0.074273  
         H34       1.0000    0.23700   0.16150   0.63300   Biso      1.000     H          0.08043   
         H35       1.0000    0.63880   0.08970   0.66910   Biso      1.000     H          0.120185  
         H36       1.0000    0.61420   0.20480   0.49440   Biso      1.000     H          0.111486  
         H37       1.0000    0.50170   0.25100   0.54030   Biso      1.000     H          0.074271  
         H38       1.0000    0.63880   0.41030   0.16910   Biso      1.000     H          0.120185  
         H39       1.0000    0.96660   0.04000   0.65250   Biso      1.000     H          0.067571  
         H40       1.0000    0.51890   0.36150   0.20680   Biso      1.000     H          0.071861  
         H41       1.0000    0.84340   0.08670   0.69170   Biso      1.000     H          0.122158  
         H42       1.0000    0.28650   0.23110   0.79820   Biso      1.000     H          0.074943  
         H43       1.0000    0.65610   0.12900   0.41600   Biso      1.000     H          0.112762  
         H44       1.0000    0.19610   0.28030   0.86560   Biso      1.000     H          0.126705  
         H45       1.0000    0.78840   0.07960   0.38960   Biso      1.000     H          0.07142   
         H46       1.0000    0.61420   0.29520   0.99440   Biso      1.000     H          0.111485  
         H47       1.0000    0.94330   0.08270   0.35350   Biso      1.000     H          0.072649  
         H48       1.0000    0.76300   0.66150   0.86700   Biso      1.000     H          0.08043   
         H49       1.0000    0.03340   0.54000   0.84750   Biso      1.000     H          0.067571  
         H50       1.0000    0.48110   0.86150   0.29320   Biso      1.000     H          0.071861  
         H51       1.0000    0.15660   0.58670   0.80830   Biso      1.000     H          0.122159  
         H52       1.0000    0.71350   0.73110   0.70180   Biso      1.000     H          0.074943  
         H53       1.0000    0.34390   0.62900   0.08400   Biso      1.000     H          0.112762  
         H54       1.0000    0.80390   0.78030   0.63440   Biso      1.000     H          0.126704  
         H55       1.0000    0.21160   0.57960   0.11040   Biso      1.000     H          0.07142   
         H56       1.0000    0.36570   0.71880   0.58810   Biso      1.000     H          0.069399  
         H57       1.0000    0.62810   0.90460   0.65390   Biso      1.000     H          0.127515  
         H58       1.0000    0.16000   0.71470   0.49260   Biso      1.000     H          0.130536  
         H59       1.0000    0.55030   0.85250   0.72640   Biso      1.000     H          0.075439  
         H60       1.0000    0.35130   0.69010   0.27290   Biso      1.000     H          0.083319  
         H61       1.0000    0.14400   0.81610   0.67540   Biso      1.000     H          0.11929   
         H62       1.0000    0.35130   0.80990   0.77290   Biso      1.000     H          0.083319  
         H63       1.0000    0.96210   0.86120   0.70310   Biso      1.000     H          0.127928  
         H64       1.0000    0.76300   0.83850   0.36700   Biso      1.000     H          0.08043   
         H65       1.0000    0.97000   0.84190   0.45720   Biso      1.000     H          0.130321  
         H66       1.0000    0.64680   0.91370   0.48940   Biso      1.000     H          0.118607  
         H67       1.0000    0.97000   0.69740   0.54850   Biso      1.000     H          0.133124  
         H68       1.0000    0.74600   0.96430   0.43610   Biso      1.000     H          0.085038  
         H69       1.0000    0.76960   0.69260   0.41950   Biso      1.000     H          0.069658  
         H70       1.0000    0.03000   0.30260   0.45150   Biso      1.000     H          0.133123  
         H71       1.0000    0.23040   0.30740   0.58050   Biso      1.000     H          0.069659  
         H72       1.0000    0.05670   0.91730   0.64650   Biso      1.000     H          0.072649  
         H73       1.0000    0.36120   0.91030   0.33090   Biso      1.000     H          0.120185  
         H74       1.0000    0.63430   0.28120   0.41190   Biso      1.000     H          0.0694    
         H75       1.0000    0.38580   0.70480   0.00560   Biso      1.000     H          0.111486  
         H76       1.0000    0.03000   0.15810   0.54280   Biso      1.000     H          0.130323  
         H77       1.0000    0.14400   0.68390   0.17540   Biso      1.000     H          0.11929   
         H78       1.0000    0.74600   0.53570   0.93610   Biso      1.000     H          0.085038  
         H79       1.0000    0.64680   0.58630   0.98940   Biso      1.000     H          0.118606  
         H80       1.0000    0.16000   0.78530   0.99260   Biso      1.000     H          0.130537  
         H81       1.0000    0.96210   0.63880   0.20310   Biso      1.000     H          0.127928  
         H82       1.0000    0.36570   0.78120   0.08810   Biso      1.000     H          0.0694    
         H83       1.0000    0.49830   0.75100   0.95970   Biso      1.000     H          0.074272  
         H84       1.0000    0.21160   0.92040   0.61040   Biso      1.000     H          0.07142   
         H85       1.0000    0.55030   0.64750   0.22640   Biso      1.000     H          0.075439  
         H86       1.0000    0.05670   0.58270   0.14650   Biso      1.000     H          0.072649  
         H87       1.0000    0.62810   0.59540   0.15390   Biso      1.000     H          0.127515  
         H88       1.0000    0.80390   0.71970   0.13440   Biso      1.000     H          0.126705  
         H89       1.0000    0.15660   0.91330   0.30830   Biso      1.000     H          0.122158  
         H90       1.0000    0.71350   0.76890   0.20180   Biso      1.000     H          0.074943  
         H91       1.0000    0.03340   0.96000   0.34750   Biso      1.000     H          0.067572  
         H92       1.0000    0.48110   0.63850   0.79320   Biso      1.000     H          0.071861  
         H93       1.0000    0.49830   0.74900   0.45970   Biso      1.000     H          0.074273  
         H94       1.0000    0.36120   0.58970   0.83090   Biso      1.000     H          0.120186  
         H95       1.0000    0.38580   0.79520   0.50560   Biso      1.000     H          0.111485  
         H96       1.0000    0.34390   0.87100   0.58400   Biso      1.000     H          0.112761  
         N1        1.0000    0.25700   0.26590   0.10550   Biso      1.000     N          -0.2108   
         N2        1.0000    0.61980   0.25800   0.80510   Biso      1.000     N          -0.227219           
         N3        1.0000    0.50270   0.20120   0.63350   Biso      1.000     N          -0.236925           
         N4        1.0000    0.38300   0.21430   0.28490   Biso      1.000     N          -0.235446           
         N5        1.0000    0.08490   0.05410   0.46360   Biso      1.000     N          -0.235113           
         N6        1.0000    0.89000   0.05650   0.51900   Biso      1.000     N          -0.229878           
         N7        1.0000    0.91510   0.94590   0.53640   Biso      1.000     N          -0.235113           
         N8        1.0000    0.61980   0.24200   0.30510   Biso      1.000     N          -0.227219           
         N9        1.0000    0.61700   0.78570   0.71510   Biso      1.000     N          -0.235445           
         N10       1.0000    0.49730   0.79880   0.36650   Biso      1.000     N          -0.236923           
         N11       1.0000    0.11000   0.94350   0.48100   Biso      1.000     N          -0.229878           
         N12       1.0000    0.38020   0.74200   0.19490   Biso      1.000     N          -0.227219           
         N13       1.0000    0.74300   0.73410   0.89450   Biso      1.000     N          -0.2108   
         N14       1.0000    0.74300   0.76590   0.39450   Biso      1.000     N          -0.2108   
         N15       1.0000    0.25700   0.23410   0.60550   Biso      1.000     N          -0.2108   
         N16       1.0000    0.38020   0.75800   0.69490   Biso      1.000     N          -0.227218           
         N17       1.0000    0.49730   0.70120   0.86650   Biso      1.000     N          -0.236926           
         N18       1.0000    0.61700   0.71430   0.21510   Biso      1.000     N          -0.235446           
         N19       1.0000    0.91510   0.55410   0.03640   Biso      1.000     N          -0.235114           
         N20       1.0000    0.38300   0.28570   0.78490   Biso      1.000     N          -0.235445           
         N21       1.0000    0.50270   0.29880   0.13350   Biso      1.000     N          -0.236923           
         N22       1.0000    0.89000   0.44350   0.01900   Biso      1.000     N          -0.229879           
         N23       1.0000    0.11000   0.55650   0.98100   Biso      1.000     N          -0.229879           
         N24       1.0000    0.08490   0.44590   0.96360   Biso      1.000     N          -0.235112 