
##########################################################################
#               Crystallographic Information Format file
#               Produced by PyCifRW module
#
#  This is a CIF file.  CIF has been adopted by the International
#  Union of Crystallography as the standard for data archiving and
#  transmission.
#
#  For information on this file format, follow the CIF links at
#  http://www.iucr.org
##########################################################################

data_image0

_cell_length_a                          8.8962
_cell_length_b                          16.5782
_cell_length_c                          16.5782
_cell_angle_alpha                       85.8717
_cell_angle_beta                        74.4363
_cell_angle_gamma                       74.4362
_symmetry_space_group_name_H-M          'P 1'
_symmetry_int_tables_number             1
loop_
  _symmetry_equiv_pos_as_xyz
         'x, y, z' 
loop_
  _atom_site_label
  _atom_site_occupancy
  _atom_site_fract_x
  _atom_site_fract_y
  _atom_site_fract_z
  _atom_site_thermal_displace_type
  _atom_site_B_iso_or_equiv
  _atom_site_type_symbol
  _atom_site_charge
         C1        1.0000    0.35050   0.71160   0.48800   Biso      1.000     C          -0.237889           
         C2        1.0000    0.49470   0.94560   0.34000   Biso      1.000     C          0.571946  
         C3        1.0000    0.32970   0.04960   0.15960   Biso      1.000     C          -0.216528           
         C4        1.0000    0.41990   0.03280   0.21840   Biso      1.000     C          -0.092252           
         C5        1.0000    0.40310   0.96410   0.27410   Biso      1.000     C          -0.053201           
         C6        1.0000    0.30340   0.91570   0.26870   Biso      1.000     C          -0.083319           
         C7        1.0000    0.21560   0.93250   0.20790   Biso      1.000     C          -0.240079           
         C8        1.0000    0.22780   0.00140   0.15460   Biso      1.000     C          0.277292  
         C9        1.0000    0.08130   0.96160   0.06880   Biso      1.000     C          -0.077454           
         C10       1.0000    0.94570   0.80810   0.44090   Biso      1.000     C          0.582624  
         C11       1.0000    0.31160   0.62400   0.38860   Biso      1.000     C          -0.216759           
         C12       1.0000    0.16780   0.67900   0.38740   Biso      1.000     C          -0.086106           
         C13       1.0000    0.10920   0.75280   0.43700   Biso      1.000     C          -0.061044           
         C14       1.0000    0.20490   0.76780   0.48640   Biso      1.000     C          -0.064713           
         C15       1.0000    0.40230   0.63870   0.43950   Biso      1.000     C          0.287121  
         C16       1.0000    0.61180   0.57830   0.50670   Biso      1.000     C          -0.077394           
         C17       1.0000    0.78030   0.05440   0.66000   Biso      1.000     C          0.570994  
         C18       1.0000    0.53890   0.95040   0.84040   Biso      1.000     C          -0.214758           
         C19       1.0000    0.69680   0.42170   0.49330   Biso      1.000     C          -0.07514  
         C20       1.0000    0.48050   0.36130   0.56050   Biso      1.000     C          0.284086  
         C21       1.0000    0.55010   0.28840   0.51200   Biso      1.000     C          -0.237915           
         C22       1.0000    0.45910   0.23220   0.51360   Biso      1.000     C          -0.066106           
         C23       1.0000    0.29900   0.24720   0.56300   Biso      1.000     C          -0.060229           
         C24       1.0000    0.23420   0.32100   0.61260   Biso      1.000     C          -0.087776           
         C25       1.0000    0.32420   0.37600   0.61140   Biso      1.000     C          -0.212907           
         C26       1.0000    0.19470   0.19190   0.55910   Biso      1.000     C          0.582002  
         C27       1.0000    0.11170   0.03840   0.93120   Biso      1.000     C          -0.081355           
         C28       1.0000    0.38380   0.99860   0.84540   Biso      1.000     C          0.278212  
         C29       1.0000    0.35600   0.06750   0.79210   Biso      1.000     C          -0.241057           
         C30       1.0000    0.48780   0.08430   0.73130   Biso      1.000     C          -0.085698           
         C31       1.0000    0.80990   0.49330   0.57830   Biso      1.000     C          -0.078454           
         C32       1.0000    0.95900   0.56050   0.63870   Biso      1.000     C          0.283082  
         C33       1.0000    0.93790   0.51200   0.71160   Biso      1.000     C          -0.241348           
         C34       1.0000    0.02730   0.51360   0.76780   Biso      1.000     C          -0.061517           
         C35       1.0000    0.00000   0.00000   0.00000   Biso      1.000     C          0.086708  
         C36       1.0000    0.75000   0.50000   0.50000   Biso      1.000     C          0.084203  
         C37       1.0000    0.16530   0.34000   0.05440   Biso      1.000     C          0.570616  
         C38       1.0000    0.51070   0.15960   0.95040   Biso      1.000     C          -0.212483           
         C39       1.0000    0.36170   0.21840   0.96720   Biso      1.000     C          -0.099034           
         C40       1.0000    0.32280   0.27410   0.03590   Biso      1.000     C          -0.046777           
         C41       1.0000    0.42790   0.26870   0.08430   Biso      1.000     C          -0.085188           
         C42       1.0000    0.57650   0.20790   0.06750   Biso      1.000     C          -0.242482           
         C43       1.0000    0.61760   0.15460   0.99860   Biso      1.000     C          0.27714   
         C44       1.0000    0.84990   0.06880   0.03840   Biso      1.000     C          -0.077965           
         C45       1.0000    0.61340   0.44090   0.19190   Biso      1.000     C          0.585193  
         C46       1.0000    0.29980   0.38860   0.37600   Biso      1.000     C          -0.216749           
         C47       1.0000    0.44480   0.38740   0.32100   Biso      1.000     C          -0.084819           
         C48       1.0000    0.45380   0.43700   0.24720   Biso      1.000     C          -0.06251  
         C49       1.0000    0.64130   0.03590   0.72590   Biso      1.000     C          -0.049479           
         C50       1.0000    0.30870   0.48640   0.23220   Biso      1.000     C          -0.064532           
         C51       1.0000    0.15820   0.43950   0.36130   Biso      1.000     C          0.284073  
         C52       1.0000    0.88150   0.50670   0.42170   Biso      1.000     C          -0.074438           
         C53       1.0000    0.55970   0.66000   0.94560   Biso      1.000     C          0.573036  
         C54       1.0000    0.62070   0.84040   0.04960   Biso      1.000     C          -0.215433           
         C55       1.0000    0.54730   0.78160   0.03280   Biso      1.000     C          -0.098129           
         C56       1.0000    0.63280   0.72590   0.96410   Biso      1.000     C          -0.047838           
         C57       1.0000    0.78090   0.73130   0.91570   Biso      1.000     C          -0.086953           
         C58       1.0000    0.85190   0.79210   0.93250   Biso      1.000     C          -0.240566           
         C59       1.0000    0.77080   0.84540   0.00140   Biso      1.000     C          0.280786  
         C60       1.0000    0.95710   0.93120   0.96160   Biso      1.000     C          -0.079278           
         C61       1.0000    0.24620   0.55910   0.80810   Biso      1.000     C          0.581843  
         C62       1.0000    0.06440   0.61140   0.62400   Biso      1.000     C          -0.212195           
         C63       1.0000    0.15320   0.61260   0.67900   Biso      1.000     C          -0.087633           
         C64       1.0000    0.13800   0.56300   0.75280   Biso      1.000     C          -0.062445           
         C65       1.0000    0.16150   0.48800   0.28840   Biso      1.000     C          -0.23932  
         C66       1.0000    0.67110   0.96720   0.78160   Biso      1.000     C          -0.096276           
         Cd1       1.0000    0.00931   0.09795   0.53595   Biso      1.000     Cd          0.982208  
         Cd2       1.0000    0.64321   0.90205   0.46405   Biso      1.000     Cd          0.983063  
         Cd3       1.0000    0.45474   0.53595   0.90205   Biso      1.000     Cd          0.982042  
         Cd4       1.0000    0.89274   0.46405   0.09795   Biso      1.000     Cd          0.982466  
         H1        1.0000    0.28970   0.22140   0.93480   Biso      1.000     H          0.122127  
         H2        1.0000    0.00380   0.94470   0.11550   Biso      1.000     H          0.101092  
         H3        1.0000    0.16840   0.91250   0.04770   Biso      1.000     H          0.102067  
         H4        1.0000    0.34920   0.57650   0.35510   Biso      1.000     H          0.125446  
         H5        1.0000    0.10710   0.66810   0.35370   Biso      1.000     H          0.113571  
         H6        1.0000    0.16970   0.81620   0.51860   Biso      1.000     H          0.119588  
         H7        1.0000    0.41320   0.72210   0.52070   Biso      1.000     H          0.127292  
         H8        1.0000    0.53080   0.57820   0.55920   Biso      1.000     H          0.099551  
         H9        1.0000    0.65120   0.62770   0.50510   Biso      1.000     H          0.097495  
         H10       1.0000    0.55540   0.90570   0.87710   Biso      1.000     H          0.128274  
         H11       1.0000    0.53890   0.12290   0.90570   Biso      1.000     H          0.127829  
         H12       1.0000    0.25200   0.10150   0.79710   Biso      1.000     H          0.134312  
         H13       1.0000    0.15060   0.89850   0.20290   Biso      1.000     H          0.134458  
         H14       1.0000    0.06400   0.05530   0.88450   Biso      1.000     H          0.102508  
         H15       1.0000    0.12860   0.08750   0.95230   Biso      1.000     H          0.102734  
         H16       1.0000    0.28080   0.42350   0.64490   Biso      1.000     H          0.124664  
         H17       1.0000    0.12890   0.33190   0.64630   Biso      1.000     H          0.11308   
         H18       1.0000    0.50450   0.18380   0.48140   Biso      1.000     H          0.119721  
         H19       1.0000    0.65600   0.27790   0.47930   Biso      1.000     H          0.129252  
         H20       1.0000    0.66820   0.42180   0.44080   Biso      1.000     H          0.098092  
         H21       1.0000    0.78400   0.37230   0.49490   Biso      1.000     H          0.097034  
         H22       1.0000    0.47070   0.12880   0.69440   Biso      1.000     H          0.120227  
         H23       1.0000    0.29390   0.87120   0.30560   Biso      1.000     H          0.120203  
         H24       1.0000    0.77550   0.93480   0.77860   Biso      1.000     H          0.120681  
         H25       1.0000    0.33820   0.09430   0.12290   Biso      1.000     H          0.128314  
         H26       1.0000    0.48890   0.06520   0.22140   Biso      1.000     H          0.119115  
         H27       1.0000    0.64650   0.20290   0.10150   Biso      1.000     H          0.135015  
         H28       1.0000    0.88070   0.11550   0.05530   Biso      1.000     H          0.10124   
         H29       1.0000    0.78390   0.04770   0.08750   Biso      1.000     H          0.102698  
         H30       1.0000    0.29570   0.35510   0.42350   Biso      1.000     H          0.125537  
         H31       1.0000    0.53920   0.35370   0.33190   Biso      1.000     H          0.112722  
         H32       1.0000    0.31170   0.51860   0.18380   Biso      1.000     H          0.119311  
         H33       1.0000    0.06610   0.52070   0.27790   Biso      1.000     H          0.129283  
         H34       1.0000    0.91000   0.55920   0.42180   Biso      1.000     H          0.097045  
         H35       1.0000    0.84370   0.50510   0.37230   Biso      1.000     H          0.097661  
         H36       1.0000    0.56750   0.87710   0.09430   Biso      1.000     H          0.128019  
         H37       1.0000    0.40050   0.30560   0.12880   Biso      1.000     H          0.119818  
         H38       1.0000    0.83490   0.69440   0.87120   Biso      1.000     H          0.120396  
         H39       1.0000    0.44590   0.77860   0.06520   Biso      1.000     H          0.121637  
         H40       1.0000    0.89100   0.44080   0.57820   Biso      1.000     H          0.099458  
         H41       1.0000    0.86470   0.47930   0.72210   Biso      1.000     H          0.130123  
         H42       1.0000    0.01410   0.48140   0.81620   Biso      1.000     H          0.119095  
         H43       1.0000    0.72110   0.49490   0.62770   Biso      1.000     H          0.098155  
         H44       1.0000    0.07430   0.64490   0.57650   Biso      1.000     H          0.12494   
         H45       1.0000    0.91910   0.95230   0.91250   Biso      1.000     H          0.103405  
         H46       1.0000    0.05150   0.88450   0.94470   Biso      1.000     H          0.100843  
         H47       1.0000    0.95090   0.79710   0.89850   Biso      1.000     H          0.134739  
         H48       1.0000    0.22480   0.64630   0.66810   Biso      1.000     H          0.112914  
         O1        1.0000    0.76065   0.09545   0.97625   Biso      1.000     O          -0.198086           
         O2        1.0000    0.87780   0.56186   0.57934   Biso      1.000     O          -0.19357  
         O3        1.0000    0.73590   0.41610   0.21670   Biso      1.000     O          -0.547784           
         O4        1.0000    0.61850   0.47230   0.11910   Biso      1.000     O          -0.576549           
         O5        1.0000    0.01900   0.43814   0.42066   Biso      1.000     O          -0.194104           
         O6        1.0000    0.40900   0.67180   0.96480   Biso      1.000     O          -0.55816  
         O7        1.0000    0.65550   0.59350   0.90930   Biso      1.000     O          -0.552319           
         O8        1.0000    0.83235   0.90455   0.02375   Biso      1.000     O          -0.199311           
         O9        1.0000    0.36870   0.58390   0.78330   Biso      1.000     O          -0.546377           
         O10       1.0000    0.20990   0.52770   0.88090   Biso      1.000     O          -0.576142           
         O11       1.0000    0.62620   0.96480   0.32820   Biso      1.000     O          -0.556838           
         O12       1.0000    0.54286   0.57934   0.43814   Biso      1.000     O          -0.196314           
         O13       1.0000    0.14390   0.02375   0.09545   Biso      1.000     O          -0.197872           
         O14       1.0000    0.84800   0.78330   0.41610   Biso      1.000     O          -0.54617  
         O15       1.0000    0.90920   0.88090   0.47230   Biso      1.000     O          -0.576896           
         O16       1.0000    0.91920   0.03520   0.67180   Biso      1.000     O          -0.555509           
         O17       1.0000    0.75100   0.09070   0.59350   Biso      1.000     O          -0.552341           
         O18       1.0000    0.26310   0.97625   0.90455   Biso      1.000     O          -0.196966           
         O19       1.0000    0.04740   0.21670   0.58390   Biso      1.000     O          -0.546302           
         O20       1.0000    0.26240   0.11910   0.52770   Biso      1.000     O          -0.576055           
         O21       1.0000    0.56034   0.42066   0.56186   Biso      1.000     O          -0.195886           
         O22       1.0000    0.15830   0.40650   0.09070   Biso      1.000     O          -0.551562           
         O23       1.0000    0.43520   0.90930   0.40650   Biso      1.000     O          -0.551855           
         O24       1.0000    0.04560   0.32820   0.03520   Biso      1.000     O          -0.557032 