
##########################################################################
#               Crystallographic Information Format file
#               Produced by PyCifRW module
#
#  This is a CIF file.  CIF has been adopted by the International
#  Union of Crystallography as the standard for data archiving and
#  transmission.
#
#  For information on this file format, follow the CIF links at
#  http://www.iucr.org
##########################################################################

data_image0

_cell_length_a                          18.9545
_cell_length_b                          18.9545
_cell_length_c                          5.7911
_cell_angle_alpha                       90
_cell_angle_beta                        90
_cell_angle_gamma                       90
_symmetry_space_group_name_H-M          'P 1'
_symmetry_int_tables_number             1
loop_
  _symmetry_equiv_pos_as_xyz
         'x, y, z' 
loop_
  _atom_site_label
  _atom_site_occupancy
  _atom_site_fract_x
  _atom_site_fract_y
  _atom_site_fract_z
  _atom_site_thermal_displace_type
  _atom_site_B_iso_or_equiv
  _atom_site_type_symbol
  _atom_site_charge
         C1        1.0000    0.74990   0.92490   0.11200   Biso      1.000     C          0.021358000000000002          
         C2        1.0000    0.47660   0.32040   0.17500   Biso      1.000     C          0.05634   
         C3        1.0000    0.74100   0.88090   0.33800   Biso      1.000     C          0.639833  
         C4        1.0000    0.24100   0.61910   0.41200   Biso      1.000     C          0.6416970000000001  
         C5        1.0000    0.81200   0.97610   0.13700   Biso      1.000     C          0.063622  
         C6        1.0000    0.75560   0.06880   0.87600   Biso      1.000     C          0.049705  
         C7        1.0000    0.73580   0.11560   0.08000   Biso      1.000     C          0.590006  
         C8        1.0000    0.67960   0.52340   0.32500   Biso      1.000     C          0.074018  
         C9        1.0000    0.82040   0.02340   0.92500   Biso      1.000     C          0.060624000000000004          
         C10       1.0000    0.75010   0.42490   0.13800   Biso      1.000     C          0.008870000000000001          
         C11       1.0000    0.25900   0.11910   0.83800   Biso      1.000     C          0.639848  
         C12       1.0000    0.18800   0.02390   0.63700   Biso      1.000     C          0.06352000000000001           
         C13       1.0000    0.76420   0.61560   0.17000   Biso      1.000     C          0.589598  
         C14       1.0000    0.24440   0.93120   0.37600   Biso      1.000     C          0.049799  
         C15       1.0000    0.26420   0.88440   0.58000   Biso      1.000     C          0.5898909999999999  
         C16       1.0000    0.57510   0.24990   0.36200   Biso      1.000     C          0.021697  
         C17       1.0000    0.74440   0.56880   0.37400   Biso      1.000     C          0.058688  
         C18       1.0000    0.17960   0.97660   0.42500   Biso      1.000     C          0.060801999999999995          
         C19       1.0000    0.11910   0.25900   0.16200   Biso      1.000     C          0.642175  
         C20       1.0000    0.02390   0.18800   0.36300   Biso      1.000     C          0.046056  
         C21       1.0000    0.68800   0.47610   0.11300   Biso      1.000     C          0.050506  
         C22       1.0000    0.93120   0.24440   0.62400   Biso      1.000     C          0.057057000000000004          
         C23       1.0000    0.88440   0.26420   0.42000   Biso      1.000     C          0.590309  
         C24       1.0000    0.75900   0.38090   0.91200   Biso      1.000     C          0.643197  
         C25       1.0000    0.07510   0.25010   0.38800   Biso      1.000     C          0.006268  
         C26       1.0000    0.97660   0.17960   0.57500   Biso      1.000     C          0.069338  
         C27       1.0000    0.88090   0.74100   0.66200   Biso      1.000     C          0.64246   
         C28       1.0000    0.02340   0.82040   0.07500   Biso      1.000     C          0.069302  
         C29       1.0000    0.97610   0.81200   0.86300   Biso      1.000     C          0.046158  
         C30       1.0000    0.92490   0.74990   0.88800   Biso      1.000     C          0.006102000000000001          
         C31       1.0000    0.06880   0.75560   0.12400   Biso      1.000     C          0.056911  
         C32       1.0000    0.25010   0.07510   0.61200   Biso      1.000     C          0.021552  
         C33       1.0000    0.31200   0.52390   0.61300   Biso      1.000     C          0.050381  
         C34       1.0000    0.11560   0.73580   0.92000   Biso      1.000     C          0.590544  
         C35       1.0000    0.56880   0.74440   0.62600   Biso      1.000     C          0.047807  
         C36       1.0000    0.52390   0.31200   0.38700   Biso      1.000     C          0.069475  
         C37       1.0000    0.38440   0.23580   0.33000   Biso      1.000     C          0.591406  
         C38       1.0000    0.24990   0.57510   0.63800   Biso      1.000     C          0.010086  
         C39       1.0000    0.61910   0.24100   0.58800   Biso      1.000     C          0.639473  
         C40       1.0000    0.61560   0.76420   0.83000   Biso      1.000     C          0.590611  
         C41       1.0000    0.25560   0.43120   0.87400   Biso      1.000     C          0.050713  
         C42       1.0000    0.43120   0.25560   0.12600   Biso      1.000     C          0.038762  
         C43       1.0000    0.47610   0.68800   0.88700   Biso      1.000     C          0.060534000000000004          
         C44       1.0000    0.32040   0.47660   0.82500   Biso      1.000     C          0.066001  
         C45       1.0000    0.23580   0.38440   0.67000   Biso      1.000     C          0.591275  
         C46       1.0000    0.42490   0.75010   0.86200   Biso      1.000     C          0.021236  
         C47       1.0000    0.38090   0.75900   0.08800   Biso      1.000     C          0.639509  
         C48       1.0000    0.52340   0.67960   0.67500   Biso      1.000     C          0.058835000000000005          
         H1        1.0000    0.17020   0.00620   0.28970   Biso      1.000     H          0.111017  
         H2        1.0000    0.99370   0.19690   0.22880   Biso      1.000     H          0.103252  
         H3        1.0000    0.69690   0.50630   0.97880   Biso      1.000     H          0.09388099999999999           
         H4        1.0000    0.10200   0.25200   0.66900   Biso      1.000     H          0.414783  
         H5        1.0000    0.60500   0.74700   0.29800   Biso      1.000     H          0.395461  
         H6        1.0000    0.78430   0.53800   0.41100   Biso      1.000     H          0.103006  
         H7        1.0000    0.29350   0.04910   0.57770   Biso      1.000     H          0.10425   
         H8        1.0000    0.75200   0.39800   0.41900   Biso      1.000     H          0.41478400000000004           
         H9        1.0000    0.30310   0.49370   0.47880   Biso      1.000     H          0.10507000000000001           
         H10       1.0000    0.96200   0.28430   0.66100   Biso      1.000     H          0.10235599999999999           
         H11       1.0000    0.89500   0.24700   0.95200   Biso      1.000     H          0.396717  
         H12       1.0000    0.20650   0.54910   0.67230   Biso      1.000     H          0.099935  
         H13       1.0000    0.04910   0.29350   0.42230   Biso      1.000     H          0.09912699999999999           
         H14       1.0000    0.50630   0.69690   0.02120   Biso      1.000     H          0.099992  
         H15       1.0000    0.00620   0.17020   0.71030   Biso      1.000     H          0.12131700000000001           
         H16       1.0000    0.99380   0.82980   0.21030   Biso      1.000     H          0.121269  
         H17       1.0000    0.39800   0.75200   0.58100   Biso      1.000     H          0.415815  
         H18       1.0000    0.89800   0.74800   0.16900   Biso      1.000     H          0.414829  
         H19       1.0000    0.00630   0.80310   0.72880   Biso      1.000     H          0.10318900000000002           
         H20       1.0000    0.95090   0.70650   0.92230   Biso      1.000     H          0.099061  
         H21       1.0000    0.32980   0.50620   0.96030   Biso      1.000     H          0.126709  
         H22       1.0000    0.03800   0.71570   0.16100   Biso      1.000     H          0.102187  
         H23       1.0000    0.53800   0.78430   0.58900   Biso      1.000     H          0.098211  
         H24       1.0000    0.24700   0.89500   0.04800   Biso      1.000     H          0.39564499999999997           
         H25       1.0000    0.45090   0.79350   0.82770   Biso      1.000     H          0.10441500000000001           
         H26       1.0000    0.28430   0.96200   0.33900   Biso      1.000     H          0.09903200000000001           
         H27       1.0000    0.39500   0.25300   0.79800   Biso      1.000     H          0.394512  
         H28       1.0000    0.54910   0.20650   0.32770   Biso      1.000     H          0.104624  
         H29       1.0000    0.46200   0.21570   0.08900   Biso      1.000     H          0.094661  
         H30       1.0000    0.50620   0.32980   0.03970   Biso      1.000     H          0.11403599999999998           
         H31       1.0000    0.24800   0.60200   0.91900   Biso      1.000     H          0.41507299999999997           
         H32       1.0000    0.74800   0.89800   0.83100   Biso      1.000     H          0.41576499999999994           
         H33       1.0000    0.80310   0.00630   0.27120   Biso      1.000     H          0.09911   
         H34       1.0000    0.49370   0.30310   0.52120   Biso      1.000     H          0.103689  
         H35       1.0000    0.71570   0.03800   0.83900   Biso      1.000     H          0.09875700000000001           
         H36       1.0000    0.67020   0.49380   0.46030   Biso      1.000     H          0.117646  
         H37       1.0000    0.60200   0.24800   0.08100   Biso      1.000     H          0.415965  
         H38       1.0000    0.79350   0.45090   0.17230   Biso      1.000     H          0.100218  
         H39       1.0000    0.10500   0.75300   0.45200   Biso      1.000     H          0.39667399999999997           
         H40       1.0000    0.70650   0.95090   0.07770   Biso      1.000     H          0.10416700000000001           
         H41       1.0000    0.75300   0.10500   0.54800   Biso      1.000     H          0.395654  
         H42       1.0000    0.21570   0.46200   0.91100   Biso      1.000     H          0.099364  
         H43       1.0000    0.82980   0.99380   0.78970   Biso      1.000     H          0.11088599999999998           
         H44       1.0000    0.74700   0.60500   0.70200   Biso      1.000     H          0.39715500000000004           
         H45       1.0000    0.49380   0.67020   0.53970   Biso      1.000     H          0.11618800000000001           
         H46       1.0000    0.19690   0.99370   0.77120   Biso      1.000     H          0.099062  
         H47       1.0000    0.25300   0.39500   0.20200   Biso      1.000     H          0.395999  
         H48       1.0000    0.25200   0.10200   0.33100   Biso      1.000     H          0.415774  
         O1        1.0000    0.08700   0.71110   0.74120   Biso      1.000     O          -0.51066  
         O2        1.0000    0.37530   0.56170   0.57360   Biso      1.000     O          -0.174604           
         O3        1.0000    0.24810   0.31780   0.69470   Biso      1.000     O          -0.572789           
         O4        1.0000    0.26550   0.62370   0.82130   Biso      1.000     O          -0.551434           
         O5        1.0000    0.37810   0.43060   0.79140   Biso      1.000     O          -0.165501           
         O6        1.0000    0.62190   0.56940   0.29140   Biso      1.000     O          -0.167238           
         O7        1.0000    0.75780   0.31630   0.93650   Biso      1.000     O          -0.587555           
         O8        1.0000    0.23010   0.58720   0.23720   Biso      1.000     O          -0.5413720000000001           
         O9        1.0000    0.24220   0.68370   0.43650   Biso      1.000     O          -0.5878770000000001           
         O10       1.0000    0.62470   0.43830   0.07360   Biso      1.000     O          -0.17239100000000002          
         O11       1.0000    0.75190   0.68220   0.19470   Biso      1.000     O          -0.573796           
         O12       1.0000    0.76990   0.41280   0.73720   Biso      1.000     O          -0.541406           
         O13       1.0000    0.27160   0.38670   0.07450   Biso      1.000     O          -0.539612           
         O14       1.0000    0.72840   0.61330   0.57450   Biso      1.000     O          -0.536878           
         O15       1.0000    0.78890   0.58700   0.99120   Biso      1.000     O          -0.5100319999999999           
         O16       1.0000    0.73450   0.37630   0.32130   Biso      1.000     O          -0.553094           
         O17       1.0000    0.21110   0.41300   0.49120   Biso      1.000     O          -0.512423           
         O18       1.0000    0.31630   0.75780   0.06350   Biso      1.000     O          -0.586581           
         O19       1.0000    0.12370   0.23450   0.57130   Biso      1.000     O          -0.552716           
         O20       1.0000    0.11330   0.77160   0.32450   Biso      1.000     O          -0.537812           
         O21       1.0000    0.87810   0.06940   0.95860   Biso      1.000     O          -0.18267  
         O22       1.0000    0.18220   0.74810   0.94470   Biso      1.000     O          -0.57392  
         O23       1.0000    0.76550   0.87630   0.92870   Biso      1.000     O          -0.550692           
         O24       1.0000    0.73010   0.91280   0.51280   Biso      1.000     O          -0.538568           
         O25       1.0000    0.74220   0.81630   0.31350   Biso      1.000     O          -0.586432           
         O26       1.0000    0.41300   0.21110   0.50880   Biso      1.000     O          -0.5163   
         O27       1.0000    0.31780   0.24810   0.30530   Biso      1.000     O          -0.578932           
         O28       1.0000    0.38670   0.27160   0.92550   Biso      1.000     O          -0.541296           
         O29       1.0000    0.43060   0.37810   0.20860   Biso      1.000     O          -0.188644           
         O30       1.0000    0.77160   0.11330   0.67550   Biso      1.000     O          -0.537522           
         O31       1.0000    0.56170   0.37530   0.42640   Biso      1.000     O          -0.173824           
         O32       1.0000    0.58720   0.23010   0.76280   Biso      1.000     O          -0.537809           
         O33       1.0000    0.68370   0.24220   0.56350   Biso      1.000     O          -0.586863           
         O34       1.0000    0.58700   0.78890   0.00880   Biso      1.000     O          -0.512695           
         O35       1.0000    0.68220   0.75190   0.80530   Biso      1.000     O          -0.5762689999999999           
         O36       1.0000    0.61330   0.72840   0.42550   Biso      1.000     O          -0.538377           
         O37       1.0000    0.56940   0.62190   0.70860   Biso      1.000     O          -0.181332           
         O38       1.0000    0.43830   0.62470   0.92640   Biso      1.000     O          -0.16311900000000001          
         O39       1.0000    0.37630   0.73450   0.67870   Biso      1.000     O          -0.550121           
         O40       1.0000    0.41280   0.76990   0.26280   Biso      1.000     O          -0.539039           
         O41       1.0000    0.62370   0.26550   0.17870   Biso      1.000     O          -0.551285           
         O42       1.0000    0.74810   0.18220   0.05530   Biso      1.000     O          -0.577082           
         O43       1.0000    0.87530   0.93830   0.17640   Biso      1.000     O          -0.169213           
         O44       1.0000    0.25780   0.18370   0.81350   Biso      1.000     O          -0.585075           
         O45       1.0000    0.06940   0.87810   0.04140   Biso      1.000     O          -0.169512           
         O46       1.0000    0.93830   0.87530   0.82360   Biso      1.000     O          -0.172758           
         O47       1.0000    0.87630   0.76550   0.07130   Biso      1.000     O          -0.5530930000000001           
         O48       1.0000    0.91280   0.73010   0.48720   Biso      1.000     O          -0.542017           
         O49       1.0000    0.81630   0.74220   0.68650   Biso      1.000     O          -0.588539           
         O50       1.0000    0.91300   0.28890   0.24120   Biso      1.000     O          -0.510691           
         O51       1.0000    0.71110   0.08700   0.25880   Biso      1.000     O          -0.5127390000000001           
         O52       1.0000    0.88670   0.22840   0.82450   Biso      1.000     O          -0.5378310000000001           
         O53       1.0000    0.93060   0.12190   0.54140   Biso      1.000     O          -0.168725           
         O54       1.0000    0.06170   0.12470   0.32360   Biso      1.000     O          -0.17136099999999999          
         O55       1.0000    0.81780   0.25190   0.44470   Biso      1.000     O          -0.573689           
         O56       1.0000    0.08720   0.26990   0.98720   Biso      1.000     O          -0.542453           
         O57       1.0000    0.23450   0.12370   0.42870   Biso      1.000     O          -0.550013           
         O58       1.0000    0.12470   0.06170   0.67640   Biso      1.000     O          -0.168004           
         O59       1.0000    0.12190   0.93060   0.45860   Biso      1.000     O          -0.18320699999999998          
         O60       1.0000    0.26990   0.08720   0.01280   Biso      1.000     O          -0.538916           
         O61       1.0000    0.25190   0.81780   0.55530   Biso      1.000     O          -0.577421           
         O62       1.0000    0.28890   0.91300   0.75880   Biso      1.000     O          -0.51255  
         O63       1.0000    0.18370   0.25780   0.18650   Biso      1.000     O          -0.587371           
         O64       1.0000    0.22840   0.88670   0.17550   Biso      1.000     O          -0.537586           
         Zn1       1.0000    0.72180   0.72180   0.50000   Biso      1.000     Zn          0.9815209999999999  
         Zn2       1.0000    0.27031   0.72969   0.75000   Biso      1.000     Zn          1.022302  
         Zn3       1.0000    0.72969   0.27031   0.25000   Biso      1.000     Zn          1.0225870000000001  
         Zn4       1.0000    0.77031   0.77031   0.00000   Biso      1.000     Zn          1.022504  
         Zn5       1.0000    0.22969   0.22969   0.50000   Biso      1.000     Zn          1.0221209999999998  
         Zn6       1.0000    0.22180   0.77820   0.25000   Biso      1.000     Zn          0.9816790000000001  
         Zn7       1.0000    0.77820   0.22180   0.75000   Biso      1.000     Zn          0.981485  
         Zn8       1.0000    0.27820   0.27820   0.00000   Biso      1.000     Zn          0.982877 