
##########################################################################
#               Crystallographic Information Format file
#               Produced by PyCifRW module
#
#  This is a CIF file.  CIF has been adopted by the International
#  Union of Crystallography as the standard for data archiving and
#  transmission.
#
#  For information on this file format, follow the CIF links at
#  http://www.iucr.org
##########################################################################

data_image0

_cell_length_a                          19.61
_cell_length_b                          9.409
_cell_length_c                          20.32
_cell_angle_alpha                       90
_cell_angle_beta                        125.31
_cell_angle_gamma                       90
_symmetry_space_group_name_H-M          'P 1'
_symmetry_int_tables_number             1
loop_
  _symmetry_equiv_pos_as_xyz
         'x, y, z' 
loop_
  _atom_site_label
  _atom_site_occupancy
  _atom_site_fract_x
  _atom_site_fract_y
  _atom_site_fract_z
  _atom_site_thermal_displace_type
  _atom_site_B_iso_or_equiv
  _atom_site_type_symbol
  _atom_site_charge
         C1        1.0000    0.38280   0.28150   0.49770   Biso      1.000     C          -0.017957           
         C2        1.0000    0.64300   0.91800   0.82690   Biso      1.000     C          -0.038925           
         C3        1.0000    0.61980   0.99560   0.85500   Biso      1.000     C          -0.068216           
         C4        1.0000    0.06200   0.91450   0.12630   Biso      1.000     C          0.036782999999999996          
         C5        1.0000    0.84860   0.91610   0.85480   Biso      1.000     C          -0.004142           
         C6        1.0000    0.85390   0.95830   0.92730   Biso      1.000     C          -0.043213           
         C7        1.0000    0.88030   0.99480   0.99480   Biso      1.000     C          -0.078598           
         C8        1.0000    0.93270   0.05110   0.07980   Biso      1.000     C          -0.0701   
         C9        1.0000    0.02380   0.06080   0.11170   Biso      1.000     C          -0.004067           
         C10       1.0000    0.87590   0.25050   0.66160   Biso      1.000     C          -0.068483           
         C11       1.0000    0.85190   0.36580   0.66620   Biso      1.000     C          -0.051775           
         C12       1.0000    0.64570   0.81420   0.77400   Biso      1.000     C          -0.008020000000000001         
         C13       1.0000    0.84570   0.51100   0.68510   Biso      1.000     C          0.055002999999999996          
         C14       1.0000    0.93090   0.57750   0.74000   Biso      1.000     C          0.050285  
         C15       1.0000    0.97940   0.53310   0.82740   Biso      1.000     C          -0.025131           
         C16       1.0000    0.07020   0.58370   0.87670   Biso      1.000     C          -0.053578999999999995         
         C17       1.0000    0.61720   0.28150   0.50230   Biso      1.000     C          -0.01835  
         C18       1.0000    0.43280   0.23580   0.58350   Biso      1.000     C          0.042401999999999995          
         C19       1.0000    0.47390   0.23320   0.38200   Biso      1.000     C          0.007279000000000001          
         C20       1.0000    0.43780   0.37930   0.37490   Biso      1.000     C          -0.009746           
         C21       1.0000    0.35190   0.37150   0.35930   Biso      1.000     C          0.020045  
         C22       1.0000    0.35640   0.32000   0.43150   Biso      1.000     C          -0.074102           
         C23       1.0000    0.35390   0.45830   0.92730   Biso      1.000     C          -0.041366           
         C24       1.0000    0.13650   0.35520   0.55770   Biso      1.000     C          0.54203   
         C25       1.0000    0.55860   0.76240   0.70540   Biso      1.000     C          0.01612   
         C26       1.0000    0.52360   0.66260   0.73710   Biso      1.000     C          -0.05683200000000001          
         C27       1.0000    0.43000   0.62780   0.67270   Biso      1.000     C          0.067838  
         C28       1.0000    0.38030   0.49480   0.99480   Biso      1.000     C          -0.08183700000000001          
         C29       1.0000    0.43270   0.55110   0.07980   Biso      1.000     C          -0.062566           
         C30       1.0000    0.52380   0.56080   0.11170   Biso      1.000     C          -0.013588           
         C31       1.0000    0.56200   0.41450   0.12630   Biso      1.000     C          0.030436  
         C32       1.0000    0.11980   0.49560   0.85500   Biso      1.000     C          -0.062077999999999994         
         C33       1.0000    0.14300   0.41800   0.82690   Biso      1.000     C          -0.037620999999999995         
         C34       1.0000    0.36350   0.85520   0.44230   Biso      1.000     C          0.541926  
         C35       1.0000    0.14570   0.31420   0.77400   Biso      1.000     C          0.001825  
         C36       1.0000    0.05860   0.26240   0.70540   Biso      1.000     C          0.012126999999999999          
         C37       1.0000    0.02360   0.16260   0.73710   Biso      1.000     C          -0.032149000000000004         
         C38       1.0000    0.93000   0.12780   0.67270   Biso      1.000     C          0.059123  
         C39       1.0000    0.06720   0.73580   0.41650   Biso      1.000     C          0.040917  
         C40       1.0000    0.02610   0.73320   0.61800   Biso      1.000     C          0.005296  
         C41       1.0000    0.06220   0.87930   0.62510   Biso      1.000     C          -0.019265           
         C42       1.0000    0.14810   0.87150   0.64070   Biso      1.000     C          0.022168  
         C43       1.0000    0.14360   0.82000   0.56850   Biso      1.000     C          -0.073779           
         C44       1.0000    0.11720   0.78150   0.50230   Biso      1.000     C          -0.017721999999999998         
         C45       1.0000    0.57020   0.08370   0.87670   Biso      1.000     C          -0.053017999999999996         
         C46       1.0000    0.47940   0.03310   0.82740   Biso      1.000     C          -0.025238           
         C47       1.0000    0.43090   0.07750   0.74000   Biso      1.000     C          0.047762  
         C48       1.0000    0.34570   0.01100   0.68510   Biso      1.000     C          0.054929  
         C49       1.0000    0.35190   0.86580   0.66620   Biso      1.000     C          -0.054527           
         C50       1.0000    0.37590   0.75050   0.66160   Biso      1.000     C          -0.068493           
         C51       1.0000    0.92980   0.58370   0.12330   Biso      1.000     C          -0.052435           
         C52       1.0000    0.02060   0.53310   0.17260   Biso      1.000     C          -0.027361           
         C53       1.0000    0.34860   0.41610   0.85480   Biso      1.000     C          -0.010048999999999999         
         C54       1.0000    0.15430   0.51100   0.31490   Biso      1.000     C          0.056475  
         C55       1.0000    0.93780   0.87930   0.37490   Biso      1.000     C          -0.016284           
         C56       1.0000    0.85190   0.87150   0.35930   Biso      1.000     C          0.02135   
         C57       1.0000    0.85640   0.82000   0.43150   Biso      1.000     C          -0.075539           
         C58       1.0000    0.88280   0.78150   0.49770   Biso      1.000     C          -0.017271           
         C59       1.0000    0.42980   0.08370   0.12330   Biso      1.000     C          -0.052842999999999994         
         C60       1.0000    0.52060   0.03310   0.17260   Biso      1.000     C          -0.024013999999999997         
         C61       1.0000    0.56910   0.07750   0.26000   Biso      1.000     C          0.049286  
         C62       1.0000    0.65430   0.01100   0.31490   Biso      1.000     C          0.05488   
         C63       1.0000    0.64810   0.86580   0.33380   Biso      1.000     C          -0.053319000000000005         
         C64       1.0000    0.62410   0.75050   0.33840   Biso      1.000     C          -0.06753300000000001          
         C65       1.0000    0.97390   0.73320   0.38200   Biso      1.000     C          0.005681  
         C66       1.0000    0.57000   0.62780   0.32730   Biso      1.000     C          0.06326799999999999           
         C67       1.0000    0.44140   0.76240   0.29460   Biso      1.000     C          0.012753  
         C68       1.0000    0.35430   0.81420   0.22600   Biso      1.000     C          -0.006371           
         C69       1.0000    0.35700   0.91800   0.17310   Biso      1.000     C          -0.037966           
         C70       1.0000    0.38020   0.99560   0.14500   Biso      1.000     C          -0.065554           
         C71       1.0000    0.93800   0.91450   0.87370   Biso      1.000     C          0.038859  
         C72       1.0000    0.15140   0.91610   0.14520   Biso      1.000     C          -0.009328           
         C73       1.0000    0.14610   0.95830   0.07270   Biso      1.000     C          -0.042563           
         C74       1.0000    0.11970   0.99480   0.00520   Biso      1.000     C          -0.078203           
         C75       1.0000    0.06730   0.05110   0.92020   Biso      1.000     C          -0.070599           
         C76       1.0000    0.97620   0.06080   0.88830   Biso      1.000     C          4.9e-05   
         C77       1.0000    0.47640   0.66260   0.26290   Biso      1.000     C          -0.046752999999999996         
         C78       1.0000    0.06910   0.57750   0.26000   Biso      1.000     C          0.048746  
         C79       1.0000    0.93280   0.73580   0.58350   Biso      1.000     C          0.038305  
         C80       1.0000    0.64610   0.45830   0.07270   Biso      1.000     C          -0.041298           
         C81       1.0000    0.94140   0.26240   0.29460   Biso      1.000     C          0.008352  
         C82       1.0000    0.85430   0.31420   0.22600   Biso      1.000     C          0.001019  
         C83       1.0000    0.85700   0.41800   0.17310   Biso      1.000     C          -0.03705  
         C84       1.0000    0.88020   0.49560   0.14500   Biso      1.000     C          -0.064053           
         C85       1.0000    0.43800   0.41450   0.87370   Biso      1.000     C          0.031632  
         C86       1.0000    0.65140   0.41610   0.14520   Biso      1.000     C          -0.006693000000000001         
         C87       1.0000    0.86350   0.35520   0.44230   Biso      1.000     C          0.5420229999999999  
         C88       1.0000    0.61970   0.49480   0.00520   Biso      1.000     C          -0.080074           
         C89       1.0000    0.56730   0.55110   0.92020   Biso      1.000     C          -0.056713           
         C90       1.0000    0.97640   0.16260   0.26290   Biso      1.000     C          -0.036495           
         C91       1.0000    0.47620   0.56080   0.88830   Biso      1.000     C          -0.017245           
         C92       1.0000    0.12410   0.25050   0.33840   Biso      1.000     C          -0.06717100000000001          
         C93       1.0000    0.14810   0.36580   0.33380   Biso      1.000     C          -0.054061           
         C94       1.0000    0.64360   0.32000   0.56850   Biso      1.000     C          -0.074036           
         C95       1.0000    0.64810   0.37150   0.64070   Biso      1.000     C          0.017836  
         C96       1.0000    0.56220   0.37930   0.62510   Biso      1.000     C          -0.008209000000000001         
         C97       1.0000    0.63650   0.85520   0.55770   Biso      1.000     C          0.541914  
         C98       1.0000    0.52610   0.23320   0.61800   Biso      1.000     C          0.0077269999999999995         
         C99       1.0000    0.56720   0.23580   0.41650   Biso      1.000     C          0.042559  
         C100      1.0000    0.07000   0.12780   0.32730   Biso      1.000     C          0.059641  
         Cu1       1.0000    0.75170   0.74410   0.42710   Biso      1.000     Cu          0.62561   
         Cu2       1.0000    0.74830   0.24410   0.57290   Biso      1.000     Cu          0.62713   
         Cu3       1.0000    0.24950   0.99910   0.06670   Biso      1.000     Cu          0.456758  
         Cu4       1.0000    0.75050   0.99910   0.93330   Biso      1.000     Cu          0.457446  
         Cu5       1.0000    0.24830   0.74410   0.57290   Biso      1.000     Cu          0.624524  
         Cu6       1.0000    0.25170   0.24410   0.42710   Biso      1.000     Cu          0.626212  
         Cu7       1.0000    0.74950   0.49910   0.06670   Biso      1.000     Cu          0.45064799999999994           
         Cu8       1.0000    0.25050   0.49910   0.93330   Biso      1.000     Cu          0.45109499999999997           
         F1        1.0000    0.86600   0.22990   0.41690   Biso      1.000     F          -0.174272           
         F2        1.0000    0.07680   0.37020   0.48150   Biso      1.000     F          -0.181193           
         F3        1.0000    0.37530   0.95050   0.40170   Biso      1.000     F          -0.20659499999999997          
         F4        1.0000    0.63400   0.72990   0.58310   Biso      1.000     F          -0.174332           
         F5        1.0000    0.62470   0.95050   0.59830   Biso      1.000     F          -0.206517           
         F6        1.0000    0.57680   0.87020   0.48150   Biso      1.000     F          -0.180873           
         F7        1.0000    0.42320   0.87020   0.51850   Biso      1.000     F          -0.1809   
         F8        1.0000    0.13400   0.22990   0.58310   Biso      1.000     F          -0.174446           
         F9        1.0000    0.12470   0.45050   0.59830   Biso      1.000     F          -0.20638800000000002          
         F10       1.0000    0.92320   0.37020   0.51850   Biso      1.000     F          -0.181399           
         F11       1.0000    0.36600   0.72990   0.41690   Biso      1.000     F          -0.174509           
         F12       1.0000    0.87530   0.45050   0.40170   Biso      1.000     F          -0.206056           
         O1        1.0000    0.73110   0.02240   0.54110   Biso      1.000     O          -0.5824699999999999           
         O2        1.0000    0.23110   0.52240   0.54110   Biso      1.000     O          -0.582765           
         O3        1.0000    0.29690   0.37850   0.66310   Biso      1.000     O          -0.558547           
         O4        1.0000    0.24430   0.26650   0.53410   Biso      1.000     O          -0.5621229999999999           
         O5        1.0000    0.25570   0.76650   0.46590   Biso      1.000     O          -0.5621689999999999           
         O6        1.0000    0.20310   0.87850   0.33690   Biso      1.000     O          -0.560068           
         O7        1.0000    0.26890   0.02240   0.45890   Biso      1.000     O          -0.582029           
         O8        1.0000    0.79690   0.87850   0.66310   Biso      1.000     O          -0.5612159999999999           
         O9        1.0000    0.75570   0.26650   0.46590   Biso      1.000     O          -0.562713           
         O10       1.0000    0.70310   0.37850   0.33690   Biso      1.000     O          -0.558874           
         O11       1.0000    0.76890   0.52240   0.45890   Biso      1.000     O          -0.5825020000000001           
         O12       1.0000    0.74430   0.76650   0.53410   Biso      1.000     O          -0.56187  
         S1        1.0000    0.73900   0.88390   0.57680   Biso      1.000     S          1.020367  
         S2        1.0000    0.26100   0.88390   0.42320   Biso      1.000     S          1.020031  
         S3        1.0000    0.76100   0.38390   0.42320   Biso      1.000     S          1.020094  
         S4        1.0000    0.23900   0.38390   0.57680   Biso      1.000     S          1.019829 