
##########################################################################
#               Crystallographic Information Format file
#               Produced by PyCifRW module
#
#  This is a CIF file.  CIF has been adopted by the International
#  Union of Crystallography as the standard for data archiving and
#  transmission.
#
#  For information on this file format, follow the CIF links at
#  http://www.iucr.org
##########################################################################

data_image0

_cell_length_a                          14.4711
_cell_length_b                          14.6161
_cell_length_c                          17.8745
_cell_angle_alpha                       90
_cell_angle_beta                        90.238
_cell_angle_gamma                       90
_symmetry_space_group_name_H-M          'P 1'
_symmetry_int_tables_number             1
loop_
  _symmetry_equiv_pos_as_xyz
         'x, y, z' 
loop_
  _atom_site_label
  _atom_site_occupancy
  _atom_site_fract_x
  _atom_site_fract_y
  _atom_site_fract_z
  _atom_site_thermal_displace_type
  _atom_site_B_iso_or_equiv
  _atom_site_type_symbol
  _atom_site_charge
         C1        1.0000    0.56337   0.10202   0.11539   Biso      1.000     C          -0.053045           
         C2        1.0000    0.34310   0.07420   0.71140   Biso      1.000     C          -0.171497           
         C3        1.0000    0.27640   0.03280   0.75325   Biso      1.000     C          0.122419  
         C4        1.0000    0.24800   0.08180   0.81440   Biso      1.000     C          -0.164361           
         C5        1.0000    0.28390   0.16730   0.82830   Biso      1.000     C          0.121657  
         C6        1.0000    0.96820   0.43227   0.90686   Biso      1.000     C          0.528404  
         C7        1.0000    0.92809   0.52596   0.92542   Biso      1.000     C          0.06778   
         C8        1.0000    0.95369   0.60786   0.89189   Biso      1.000     C          -0.054309           
         C9        1.0000    0.03160   0.61550   0.83744   Biso      1.000     C          0.641954  
         C10       1.0000    0.91030   0.68728   0.91677   Biso      1.000     C          -0.075073           
         C11       1.0000    0.84520   0.68517   0.97245   Biso      1.000     C          -0.012729           
         C12       1.0000    0.79930   0.77389   0.99426   Biso      1.000     C          0.598046  
         C13       1.0000    0.82350   0.60052   0.00432   Biso      1.000     C          0.096854  
         C14       1.0000    0.75494   0.58247   0.06654   Biso      1.000     C          0.575119  
         C15       1.0000    0.51950   0.93282   0.08972   Biso      1.000     C          0.533237  
         C16       1.0000    0.57437   0.02006   0.07694   Biso      1.000     C          0.071042  
         C17       1.0000    0.48080   0.12202   0.16425   Biso      1.000     C          0.641697  
         C18       1.0000    0.62800   0.17137   0.10273   Biso      1.000     C          -0.092229           
         C19       1.0000    0.37490   0.16050   0.72870   Biso      1.000     C          0.123393  
         C20       1.0000    0.69728   0.15986   0.04956   Biso      1.000     C          -0.02034  
         C21       1.0000    0.12440   0.82460   0.74870   Biso      1.000     C          0.13845   
         C22       1.0000    0.23940   0.94020   0.73680   Biso      1.000     C          0.110044  
         C23       1.0000    0.95369   0.89214   0.39189   Biso      1.000     C          -0.05431  
         C24       1.0000    0.03160   0.88450   0.33744   Biso      1.000     C          0.641954  
         C25       1.0000    0.91030   0.81272   0.41677   Biso      1.000     C          -0.075073           
         C26       1.0000    0.84520   0.81483   0.47245   Biso      1.000     C          -0.012729           
         C27       1.0000    0.79930   0.72611   0.49426   Biso      1.000     C          0.598046  
         C28       1.0000    0.82350   0.89948   0.50432   Biso      1.000     C          0.096854  
         C29       1.0000    0.75494   0.91753   0.56654   Biso      1.000     C          0.575119  
         C30       1.0000    0.51950   0.56718   0.58972   Biso      1.000     C          0.533237  
         C31       1.0000    0.57437   0.47994   0.57694   Biso      1.000     C          0.071042  
         C32       1.0000    0.56337   0.39798   0.61539   Biso      1.000     C          -0.053044           
         C33       1.0000    0.48080   0.37798   0.66425   Biso      1.000     C          0.641697  
         C34       1.0000    0.62800   0.32863   0.60273   Biso      1.000     C          -0.092229           
         C35       1.0000    0.69728   0.34014   0.54956   Biso      1.000     C          -0.02034  
         C36       1.0000    0.77240   0.26914   0.54160   Biso      1.000     C          0.585322  
         C37       1.0000    0.69760   0.42057   0.50811   Biso      1.000     C          0.100005  
         C38       1.0000    0.75688   0.44007   0.44020   Biso      1.000     C          0.580428  
         C39       1.0000    0.24890   0.79310   0.67850   Biso      1.000     C          0.119285  
         C40       1.0000    0.15630   0.91100   0.76440   Biso      1.000     C          -0.159897           
         C41       1.0000    0.92809   0.97404   0.42542   Biso      1.000     C          0.067781  
         C42       1.0000    0.77240   0.23086   0.04160   Biso      1.000     C          0.585322  
         C43       1.0000    0.75688   0.05993   0.94020   Biso      1.000     C          0.580429  
         C44       1.0000    0.43663   0.60202   0.38461   Biso      1.000     C          -0.053044           
         C45       1.0000    0.51920   0.62202   0.33575   Biso      1.000     C          0.641697  
         C46       1.0000    0.37200   0.67137   0.39727   Biso      1.000     C          -0.092229           
         C47       1.0000    0.30272   0.65986   0.45044   Biso      1.000     C          -0.02034  
         C48       1.0000    0.22760   0.73086   0.45840   Biso      1.000     C          0.585322  
         C49       1.0000    0.30240   0.57943   0.49189   Biso      1.000     C          0.100005  
         C50       1.0000    0.24312   0.55993   0.55980   Biso      1.000     C          0.580429  
         C51       1.0000    0.75110   0.20690   0.32150   Biso      1.000     C          0.119285  
         C52       1.0000    0.71310   0.12220   0.30740   Biso      1.000     C          -0.176081           
         C53       1.0000    0.76060   0.05980   0.26320   Biso      1.000     C          0.110046  
         C54       1.0000    0.84370   0.08900   0.23560   Biso      1.000     C          -0.159902           
         C55       1.0000    0.87560   0.17540   0.25130   Biso      1.000     C          0.138454  
         C56       1.0000    0.62510   0.83950   0.27130   Biso      1.000     C          0.12339   
         C57       1.0000    0.65690   0.92580   0.28860   Biso      1.000     C          -0.171494           
         C58       1.0000    0.72360   0.96720   0.24675   Biso      1.000     C          0.122419  
         C59       1.0000    0.75200   0.91820   0.18560   Biso      1.000     C          -0.164361           
         C60       1.0000    0.71610   0.83270   0.17170   Biso      1.000     C          0.121656  
         C61       1.0000    0.42563   0.52006   0.42306   Biso      1.000     C          0.071042  
         C62       1.0000    0.69760   0.07943   0.00811   Biso      1.000     C          0.100005  
         C63       1.0000    0.48050   0.43282   0.41028   Biso      1.000     C          0.533237  
         C64       1.0000    0.17650   0.10052   0.49568   Biso      1.000     C          0.096855  
         C65       1.0000    0.24890   0.70690   0.17850   Biso      1.000     C          0.119285  
         C66       1.0000    0.28690   0.62220   0.19260   Biso      1.000     C          -0.176081           
         C67       1.0000    0.23940   0.55980   0.23680   Biso      1.000     C          0.110045  
         C68       1.0000    0.15630   0.58900   0.26440   Biso      1.000     C          -0.159901           
         C69       1.0000    0.12440   0.67540   0.24870   Biso      1.000     C          0.138454  
         C70       1.0000    0.37490   0.33950   0.22870   Biso      1.000     C          0.12339   
         C71       1.0000    0.34310   0.42580   0.21140   Biso      1.000     C          -0.171494           
         C72       1.0000    0.27640   0.46720   0.25325   Biso      1.000     C          0.122419  
         C73       1.0000    0.24800   0.41820   0.31440   Biso      1.000     C          -0.16436  
         C74       1.0000    0.28390   0.33270   0.32830   Biso      1.000     C          0.121657  
         C75       1.0000    0.03180   0.93227   0.59314   Biso      1.000     C          0.528404  
         C76       1.0000    0.07191   0.02596   0.57458   Biso      1.000     C          0.06778   
         C77       1.0000    0.04631   0.10786   0.60811   Biso      1.000     C          -0.054309           
         C78       1.0000    0.96840   0.11550   0.66256   Biso      1.000     C          0.641954  
         C79       1.0000    0.08970   0.18728   0.58323   Biso      1.000     C          -0.075073           
         C80       1.0000    0.15480   0.18517   0.52755   Biso      1.000     C          -0.012729           
         C81       1.0000    0.20070   0.27389   0.50574   Biso      1.000     C          0.598046  
         C82       1.0000    0.24506   0.08247   0.43346   Biso      1.000     C          0.575119  
         C83       1.0000    0.96820   0.06773   0.40686   Biso      1.000     C          0.528404  
         C84       1.0000    0.28690   0.87780   0.69260   Biso      1.000     C          -0.17608  
         C85       1.0000    0.75200   0.58180   0.68560   Biso      1.000     C          -0.164367           
         C86       1.0000    0.71610   0.66730   0.67170   Biso      1.000     C          0.121657  
         C87       1.0000    0.03180   0.56773   0.09314   Biso      1.000     C          0.528404  
         C88       1.0000    0.07191   0.47404   0.07458   Biso      1.000     C          0.06778   
         C89       1.0000    0.04631   0.39214   0.10811   Biso      1.000     C          -0.05431  
         C90       1.0000    0.96840   0.38450   0.16256   Biso      1.000     C          0.641954  
         C91       1.0000    0.15480   0.31483   0.02755   Biso      1.000     C          -0.012737           
         C92       1.0000    0.20070   0.22611   0.00574   Biso      1.000     C          0.598047  
         C93       1.0000    0.17650   0.39948   0.99568   Biso      1.000     C          0.096855  
         C94       1.0000    0.24506   0.41753   0.93346   Biso      1.000     C          0.575119  
         C95       1.0000    0.48050   0.06718   0.91028   Biso      1.000     C          0.533237  
         C96       1.0000    0.42563   0.97994   0.92306   Biso      1.000     C          0.071042  
         C97       1.0000    0.43663   0.89798   0.88461   Biso      1.000     C          -0.053044           
         C98       1.0000    0.51920   0.87798   0.83575   Biso      1.000     C          0.641697  
         C99       1.0000    0.08970   0.31272   0.08323   Biso      1.000     C          -0.075064           
         C100      1.0000    0.30272   0.84014   0.95044   Biso      1.000     C          -0.02034  
         C101      1.0000    0.72360   0.53280   0.74675   Biso      1.000     C          0.12242   
         C102      1.0000    0.37200   0.82863   0.89727   Biso      1.000     C          -0.092229           
         C103      1.0000    0.65690   0.57420   0.78860   Biso      1.000     C          -0.171492           
         C104      1.0000    0.62510   0.66050   0.77130   Biso      1.000     C          0.123392  
         C105      1.0000    0.84370   0.41100   0.73560   Biso      1.000     C          -0.15991  
         C106      1.0000    0.76060   0.44020   0.76320   Biso      1.000     C          0.110053  
         C107      1.0000    0.87560   0.32460   0.75130   Biso      1.000     C          0.138455  
         C108      1.0000    0.75110   0.29310   0.82150   Biso      1.000     C          0.119285  
         C109      1.0000    0.24312   0.94007   0.05980   Biso      1.000     C          0.580428  
         C110      1.0000    0.30240   0.92057   0.99189   Biso      1.000     C          0.100005  
         C111      1.0000    0.22760   0.76914   0.95840   Biso      1.000     C          0.585322  
         C112      1.0000    0.71310   0.37780   0.80740   Biso      1.000     C          -0.176081           
         H1        1.0000    0.36750   0.04360   0.67040   Biso      1.000     H          0.133041  
         H2        1.0000    0.62480   0.27450   0.62990   Biso      1.000     H          0.138774  
         H3        1.0000    0.20440   0.05710   0.84670   Biso      1.000     H          0.139744  
         H4        1.0000    0.42010   0.18600   0.69840   Biso      1.000     H          0.096452  
         H5        1.0000    0.06860   0.80660   0.76980   Biso      1.000     H          0.100483  
         H6        1.0000    0.12120   0.95000   0.79390   Biso      1.000     H          0.138496  
         H7        1.0000    0.34400   0.89320   0.67260   Biso      1.000     H          0.132511  
         H8        1.0000    0.28180   0.75290   0.64830   Biso      1.000     H          0.101214  
         H9        1.0000    0.92570   0.75690   0.39510   Biso      1.000     H          0.14055   
         H10       1.0000    0.87880   0.45000   0.70610   Biso      1.000     H          0.138497  
         H11       1.0000    0.79560   0.55710   0.65330   Biso      1.000     H          0.139745  
         H12       1.0000    0.57990   0.68600   0.80160   Biso      1.000     H          0.096452  
         H13       1.0000    0.93140   0.30660   0.73020   Biso      1.000     H          0.100483  
         H14       1.0000    0.65600   0.39320   0.82740   Biso      1.000     H          0.132511  
         H15       1.0000    0.71820   0.25290   0.85170   Biso      1.000     H          0.101214  
         H16       1.0000    0.37520   0.77450   0.87010   Biso      1.000     H          0.138774  
         H17       1.0000    0.26350   0.19790   0.87070   Biso      1.000     H          0.095288  
         H18       1.0000    0.07430   0.25690   0.10490   Biso      1.000     H          0.140549  
         H19       1.0000    0.73650   0.69790   0.62930   Biso      1.000     H          0.095288  
         H20       1.0000    0.92570   0.74310   0.89510   Biso      1.000     H          0.14055   
         H21       1.0000    0.63250   0.54360   0.82960   Biso      1.000     H          0.13304   
         H22       1.0000    0.28180   0.74710   0.14830   Biso      1.000     H          0.101214  
         H23       1.0000    0.73650   0.80210   0.12930   Biso      1.000     H          0.095288  
         H24       1.0000    0.79560   0.94290   0.15330   Biso      1.000     H          0.139744  
         H25       1.0000    0.62480   0.22550   0.12990   Biso      1.000     H          0.138774  
         H26       1.0000    0.57990   0.81400   0.30160   Biso      1.000     H          0.096452  
         H27       1.0000    0.93140   0.19340   0.23020   Biso      1.000     H          0.100483  
         H28       1.0000    0.87880   0.05000   0.20610   Biso      1.000     H          0.138497  
         H29       1.0000    0.65600   0.10680   0.32740   Biso      1.000     H          0.132511  
         H30       1.0000    0.71820   0.24710   0.35170   Biso      1.000     H          0.101214  
         H31       1.0000    0.37520   0.72550   0.37010   Biso      1.000     H          0.138774  
         H32       1.0000    0.63250   0.95640   0.32960   Biso      1.000     H          0.13304   
         H33       1.0000    0.26350   0.30210   0.37070   Biso      1.000     H          0.095288  
         H34       1.0000    0.20440   0.44290   0.34670   Biso      1.000     H          0.139744  
         H35       1.0000    0.36750   0.45640   0.17040   Biso      1.000     H          0.13304   
         H36       1.0000    0.42010   0.31400   0.19840   Biso      1.000     H          0.096452  
         H37       1.0000    0.06860   0.69340   0.26980   Biso      1.000     H          0.100483  
         H38       1.0000    0.12120   0.55000   0.29390   Biso      1.000     H          0.138497  
         H39       1.0000    0.34400   0.60680   0.17260   Biso      1.000     H          0.132511  
         H40       1.0000    0.07430   0.24310   0.60490   Biso      1.000     H          0.14055   
         N1        1.0000    0.83188   0.26506   0.79472   Biso      1.000     N          -0.239262           
         N2        1.0000    0.65494   0.70897   0.71436   Biso      1.000     N          -0.232566           
         N3        1.0000    0.86503   0.97563   0.47944   Biso      1.000     N          -0.278173           
         N4        1.0000    0.63889   0.48796   0.52429   Biso      1.000     N          -0.27219  
         N5        1.0000    0.16812   0.76506   0.70528   Biso      1.000     N          -0.239262           
         N6        1.0000    0.34506   0.20897   0.78564   Biso      1.000     N          -0.232565           
         N7        1.0000    0.34506   0.29103   0.28564   Biso      1.000     N          -0.232565           
         N8        1.0000    0.63889   0.01204   0.02429   Biso      1.000     N          -0.27219  
         N9        1.0000    0.16812   0.73494   0.20528   Biso      1.000     N          -0.239262           
         N10       1.0000    0.13497   0.02437   0.52056   Biso      1.000     N          -0.278173           
         N11       1.0000    0.36111   0.51204   0.47571   Biso      1.000     N          -0.27219  
         N12       1.0000    0.83188   0.23494   0.29472   Biso      1.000     N          -0.239262           
         N13       1.0000    0.65494   0.79103   0.21436   Biso      1.000     N          -0.232565           
         N14       1.0000    0.86503   0.52437   0.97944   Biso      1.000     N          -0.278173           
         N15       1.0000    0.13497   0.47563   0.02056   Biso      1.000     N          -0.278173           
         N16       1.0000    0.36111   0.98796   0.97571   Biso      1.000     N          -0.27219  
         O1        1.0000    0.14799   0.71013   0.44340   Biso      1.000     O          -0.532415           
         O2        1.0000    0.54088   0.86634   0.04666   Biso      1.000     O          -0.598792           
         O3        1.0000    0.74003   0.49938   0.08062   Biso      1.000     O          -0.539051           
         O4        1.0000    0.71879   0.64967   0.09790   Biso      1.000     O          -0.51252  
         O5        1.0000    0.71612   0.77949   0.97190   Biso      1.000     O          -0.567072           
         O6        1.0000    0.84341   0.83323   0.02738   Biso      1.000     O          -0.544364           
         O7        1.0000    0.01446   0.63152   0.77048   Biso      1.000     O          -0.545522           
         O8        1.0000    0.11178   0.61053   0.86489   Biso      1.000     O          -0.52663  
         O9        1.0000    0.46097   0.93278   0.13858   Biso      1.000     O          -0.542666           
         O10       1.0000    0.93891   0.36667   0.94782   Biso      1.000     O          -0.580754           
         O11       1.0000    0.80034   0.37346   0.41390   Biso      1.000     O          -0.508105           
         O12       1.0000    0.75552   0.52048   0.41609   Biso      1.000     O          -0.527915           
         O13       1.0000    0.74471   0.18925   0.52285   Biso      1.000     O          -0.563484           
         O14       1.0000    0.85201   0.28987   0.55660   Biso      1.000     O          -0.532415           
         O15       1.0000    0.40435   0.36884   0.63072   Biso      1.000     O          -0.529012           
         O16       1.0000    0.49231   0.36637   0.73185   Biso      1.000     O          -0.538194           
         O17       1.0000    0.46097   0.56722   0.63858   Biso      1.000     O          -0.542666           
         O18       1.0000    0.02446   0.42733   0.85641   Biso      1.000     O          -0.535955           
         O19       1.0000    0.25529   0.81075   0.47715   Biso      1.000     O          -0.563484           
         O20       1.0000    0.49231   0.13363   0.23185   Biso      1.000     O          -0.538194           
         O21       1.0000    0.85201   0.21013   0.05660   Biso      1.000     O          -0.532415           
         O22       1.0000    0.59565   0.63116   0.36928   Biso      1.000     O          -0.529011           
         O23       1.0000    0.50769   0.63363   0.26815   Biso      1.000     O          -0.538194           
         O24       1.0000    0.53903   0.43278   0.36142   Biso      1.000     O          -0.542666           
         O25       1.0000    0.45912   0.36634   0.45334   Biso      1.000     O          -0.598792           
         O26       1.0000    0.25997   0.99938   0.41938   Biso      1.000     O          -0.539051           
         O27       1.0000    0.28121   0.14967   0.40210   Biso      1.000     O          -0.51252  
         O28       1.0000    0.28388   0.27949   0.52810   Biso      1.000     O          -0.567072           
         O29       1.0000    0.40435   0.13116   0.13072   Biso      1.000     O          -0.529012           
         O30       1.0000    0.15659   0.33323   0.47262   Biso      1.000     O          -0.544364           
         O31       1.0000    0.88822   0.11053   0.63511   Biso      1.000     O          -0.52663  
         O32       1.0000    0.06109   0.86667   0.55218   Biso      1.000     O          -0.580754           
         O33       1.0000    0.97554   0.92733   0.64359   Biso      1.000     O          -0.535955           
         O34       1.0000    0.80034   0.12654   0.91390   Biso      1.000     O          -0.508105           
         O35       1.0000    0.54088   0.63366   0.54666   Biso      1.000     O          -0.598792           
         O36       1.0000    0.75552   0.97952   0.91609   Biso      1.000     O          -0.527915           
         O37       1.0000    0.74471   0.31075   0.02285   Biso      1.000     O          -0.563484           
         O38       1.0000    0.98554   0.13152   0.72952   Biso      1.000     O          -0.545522           
         O39       1.0000    0.74003   0.00062   0.58062   Biso      1.000     O          -0.539051           
         O40       1.0000    0.19966   0.62654   0.58610   Biso      1.000     O          -0.508105           
         O41       1.0000    0.71612   0.72051   0.47190   Biso      1.000     O          -0.567072           
         O42       1.0000    0.24448   0.47952   0.58391   Biso      1.000     O          -0.527915           
         O43       1.0000    0.97554   0.57267   0.14359   Biso      1.000     O          -0.535955           
         O44       1.0000    0.06109   0.63333   0.05218   Biso      1.000     O          -0.580754           
         O45       1.0000    0.71879   0.85033   0.59790   Biso      1.000     O          -0.51252  
         O46       1.0000    0.98554   0.36848   0.22952   Biso      1.000     O          -0.545522           
         O47       1.0000    0.15659   0.16677   0.97262   Biso      1.000     O          -0.544365           
         O48       1.0000    0.28388   0.22051   0.02810   Biso      1.000     O          -0.567071           
         O49       1.0000    0.28121   0.35033   0.90210   Biso      1.000     O          -0.51252  
         O50       1.0000    0.25997   0.50062   0.91938   Biso      1.000     O          -0.539051           
         O51       1.0000    0.45912   0.13366   0.95334   Biso      1.000     O          -0.598792           
         O52       1.0000    0.53903   0.06722   0.86142   Biso      1.000     O          -0.542666           
         O53       1.0000    0.88822   0.38947   0.13511   Biso      1.000     O          -0.52663  
         O54       1.0000    0.59565   0.86884   0.86928   Biso      1.000     O          -0.529012           
         O55       1.0000    0.50769   0.86637   0.76815   Biso      1.000     O          -0.538194           
         O56       1.0000    0.84341   0.66677   0.52738   Biso      1.000     O          -0.544364           
         O57       1.0000    0.11178   0.88947   0.36489   Biso      1.000     O          -0.52663  
         O58       1.0000    0.93891   0.13333   0.44782   Biso      1.000     O          -0.580754           
         O59       1.0000    0.01446   0.86848   0.27048   Biso      1.000     O          -0.545522           
         O60       1.0000    0.19966   0.87346   0.08610   Biso      1.000     O          -0.508105           
         O61       1.0000    0.24448   0.02048   0.08391   Biso      1.000     O          -0.527914           
         O62       1.0000    0.25529   0.68925   0.97715   Biso      1.000     O          -0.563484           
         O63       1.0000    0.14799   0.78987   0.94340   Biso      1.000     O          -0.532415           
         O64       1.0000    0.02446   0.07267   0.35641   Biso      1.000     O          -0.535955           
         Zn1       1.0000    0.35165   0.39277   0.53138   Biso      1.000     Zn          0.906522  
         Zn2       1.0000    0.61288   0.84596   0.68531   Biso      1.000     Zn          0.943227  
         Zn3       1.0000    0.64835   0.89277   0.96862   Biso      1.000     Zn          0.906522  
         Zn4       1.0000    0.88843   0.36593   0.32189   Biso      1.000     Zn          0.974114  
         Zn5       1.0000    0.84279   0.09857   0.53104   Biso      1.000     Zn          0.898645  
         Zn6       1.0000    0.38712   0.34596   0.81469   Biso      1.000     Zn          0.943227  
         Zn7       1.0000    0.11157   0.86593   0.17811   Biso      1.000     Zn          0.974114  
         Zn8       1.0000    0.15721   0.90143   0.46896   Biso      1.000     Zn          0.898646  
         Zn9       1.0000    0.38712   0.15404   0.31469   Biso      1.000     Zn          0.943226  
         Zn10      1.0000    0.35165   0.10723   0.03138   Biso      1.000     Zn          0.906522  
         Zn11      1.0000    0.11157   0.63407   0.67811   Biso      1.000     Zn          0.974114  
         Zn12      1.0000    0.61288   0.65404   0.18531   Biso      1.000     Zn          0.943226  
         Zn13      1.0000    0.64835   0.60723   0.46862   Biso      1.000     Zn          0.906522  
         Zn14      1.0000    0.88843   0.13407   0.82189   Biso      1.000     Zn          0.974114  
         Zn15      1.0000    0.84279   0.40143   0.03104   Biso      1.000     Zn          0.898645  
         Zn16      1.0000    0.15721   0.59857   0.96896   Biso      1.000     Zn          0.898646 