
##########################################################################
#               Crystallographic Information Format file
#               Produced by PyCifRW module
#
#  This is a CIF file.  CIF has been adopted by the International
#  Union of Crystallography as the standard for data archiving and
#  transmission.
#
#  For information on this file format, follow the CIF links at
#  http://www.iucr.org
##########################################################################

data_image0

_cell_length_a                          10.335
_cell_length_b                          10.335
_cell_length_c                          17.015
_cell_angle_alpha                       84.8412
_cell_angle_beta                        74.6906
_cell_angle_gamma                       114.663
_symmetry_space_group_name_H-M          'P 1'
_symmetry_int_tables_number             1
loop_
  _symmetry_equiv_pos_as_xyz
         'x, y, z' 
loop_
  _atom_site_label
  _atom_site_occupancy
  _atom_site_fract_x
  _atom_site_fract_y
  _atom_site_fract_z
  _atom_site_thermal_displace_type
  _atom_site_B_iso_or_equiv
  _atom_site_type_symbol
  _atom_site_charge
         Ag1       1.0000    0.85369   0.37452   0.30825   Biso      1.000     Ag          0.4956    
         Ag2       1.0000    0.81723   0.83806   0.80825   Biso      1.000     Ag          0.495896  
         C1        1.0000    0.23090   0.75150   0.93580   Biso      1.000     C          -0.111024           
         C2        1.0000    0.08370   0.72940   0.96770   Biso      1.000     C          -0.111643           
         C3        1.0000    0.05086   0.82144   0.01510   Biso      1.000     C          0.008219  
         C4        1.0000    0.16729   0.93821   0.02930   Biso      1.000     C          -0.113371           
         C5        1.0000    0.31410   0.95970   0.99780   Biso      1.000     C          -0.124352           
         C6        1.0000    0.34590   0.86630   0.95100   Biso      1.000     C          0.065903  
         C7        1.0000    0.49810   0.88270   0.92020   Biso      1.000     C          0.288445  
         C8        1.0000    0.59010   0.62820   0.71970   Biso      1.000     C          0.314582  
         C9        1.0000    0.37590   0.31750   0.63460   Biso      1.000     C          -0.110878           
         C10       1.0000    0.49180   0.41750   0.65750   Biso      1.000     C          -0.116678           
         C11       1.0000    0.46680   0.51700   0.70020   Biso      1.000     C          0.033107  
         C12       1.0000    0.32650   0.51670   0.72420   Biso      1.000     C          -0.133212           
         C13       1.0000    0.21235   0.41796   0.70069   Biso      1.000     C          -0.138227           
         C14       1.0000    0.23679   0.32034   0.65447   Biso      1.000     C          0.001836  
         C15       1.0000    0.11609   0.21231   0.62660   Biso      1.000     C          0.293185  
         C16       1.0000    0.52820   0.07480   0.36980   Biso      1.000     C          0.315859  
         C17       1.0000    0.21200   0.69520   0.43320   Biso      1.000     C          -0.140643           
         C18       1.0000    0.37975   0.95090   0.41055   Biso      1.000     C          0.035374  
         C19       1.0000    0.27060   0.96810   0.47170   Biso      1.000     C          -0.109173           
         C20       1.0000    0.89263   0.80438   0.04719   Biso      1.000     C          0.31711   
         C21       1.0000    0.76207   0.65567   0.06246   Biso      1.000     C          0.01094   
         C22       1.0000    0.63449   0.64921   0.04690   Biso      1.000     C          -0.16042  
         C23       1.0000    0.51528   0.51432   0.05340   Biso      1.000     C          0.009192  
         C24       1.0000    0.15210   0.69020   0.21970   Biso      1.000     C          0.31487   
         C25       1.0000    0.54790   0.98950   0.13460   Biso      1.000     C          -0.110001           
         C26       1.0000    0.42500   0.85070   0.15750   Biso      1.000     C          -0.117888           
         C27       1.0000    0.28280   0.83300   0.20020   Biso      1.000     C          0.033468  
         C28       1.0000    0.25910   0.94930   0.22420   Biso      1.000     C          -0.130443           
         C29       1.0000    0.38135   0.08696   0.20069   Biso      1.000     C          -0.138758           
         C30       1.0000    0.52519   0.10874   0.15447   Biso      1.000     C          0.002666  
         C31       1.0000    0.66109   0.25731   0.12660   Biso      1.000     C          0.294838  
         C32       1.0000    0.05540   0.10200   0.86980   Biso      1.000     C          0.312509  
         C33       1.0000    0.37160   0.35480   0.93320   Biso      1.000     C          -0.139459           
         C34       1.0000    0.29350   0.25780   0.89030   Biso      1.000     C          -0.126763           
         C35       1.0000    0.13855   0.20970   0.91055   Biso      1.000     C          0.036998  
         C36       1.0000    0.06020   0.25770   0.97170   Biso      1.000     C          -0.107836           
         C37       1.0000    0.13980   0.35450   0.01270   Biso      1.000     C          -0.104112           
         C38       1.0000    0.29447   0.40101   0.99452   Biso      1.000     C          -0.002191           
         C39       1.0000    0.37737   0.51191   0.03792   Biso      1.000     C          0.312112  
         C40       1.0000    0.76624   0.52768   0.09068   Biso      1.000     C          -0.155622           
         C41       1.0000    0.64564   0.39123   0.09953   Biso      1.000     C          0.009504  
         C42       1.0000    0.52246   0.38647   0.07767   Biso      1.000     C          -0.166007           
         C43       1.0000    0.13280   0.84750   0.51270   Biso      1.000     C          -0.10196  
         C44       1.0000    0.10447   0.71101   0.49452   Biso      1.000     C          -0.002401           
         C45       1.0000    0.35190   0.81620   0.39030   Biso      1.000     C          -0.12634  
         C46       1.0000    0.88164   0.14308   0.59068   Biso      1.000     C          -0.154903           
         C47       1.0000    0.95017   0.58471   0.53792   Biso      1.000     C          0.309114  
         C48       1.0000    0.68270   0.70310   0.45100   Biso      1.000     C          0.0635    
         C49       1.0000    0.54250   0.68810   0.49780   Biso      1.000     C          -0.123985           
         C50       1.0000    0.53249   0.80341   0.52930   Biso      1.000     C          -0.112604           
         C51       1.0000    0.66346   0.93404   0.51510   Biso      1.000     C          0.008349  
         C52       1.0000    0.80290   0.94860   0.46770   Biso      1.000     C          -0.112834           
         C53       1.0000    0.81270   0.83330   0.43580   Biso      1.000     C          -0.107104           
         C54       1.0000    0.69710   0.58170   0.42020   Biso      1.000     C          0.288183  
         C55       1.0000    0.78187   0.17547   0.56246   Biso      1.000     C          0.011709  
         C56       1.0000    0.80389   0.31861   0.54690   Biso      1.000     C          -0.161311           
         C57       1.0000    0.93228   0.43132   0.55340   Biso      1.000     C          0.011691  
         C58       1.0000    0.03586   0.39987   0.57767   Biso      1.000     C          -0.164383           
         C59       1.0000    0.00924   0.25483   0.59953   Biso      1.000     C          0.008143  
         C60       1.0000    0.64843   0.06018   0.54719   Biso      1.000     C          0.317955  
         H1        1.0000    0.58600   0.41740   0.64400   Biso      1.000     H          0.123077  
         H2        1.0000    0.31010   0.58210   0.75560   Biso      1.000     H          0.124071  
         H3        1.0000    0.11740   0.41650   0.71590   Biso      1.000     H          0.118263  
         H4        1.0000    0.19100   0.60350   0.42050   Biso      1.000     H          0.115519  
         H5        1.0000    0.42580   0.80680   0.34860   Biso      1.000     H          0.124752  
         H6        1.0000    0.29090   0.05970   0.48440   Biso      1.000     H          0.131841  
         H7        1.0000    0.12460   0.47650   0.57950   Biso      1.000     H          0.109709  
         H8        1.0000    0.86350   0.04540   0.60390   Biso      1.000     H          0.116303  
         H9        1.0000    0.73210   0.33950   0.53200   Biso      1.000     H          0.120377  
         H10       1.0000    0.90700   0.84310   0.40390   Biso      1.000     H          0.117665  
         H11       1.0000    0.89060   0.03700   0.45740   Biso      1.000     H          0.116523  
         H12       1.0000    0.43790   0.79430   0.56020   Biso      1.000     H          0.120815  
         H13       1.0000    0.45480   0.59960   0.50800   Biso      1.000     H          0.117597  
         H14       1.0000    0.05740   0.85740   0.55320   Biso      1.000     H          0.125227  
         H15       1.0000    0.39110   0.24860   0.60590   Biso      1.000     H          0.128916  
         H16       1.0000    0.14550   0.00190   0.06020   Biso      1.000     H          0.120905  
         H17       1.0000    0.00560   0.65200   0.95740   Biso      1.000     H          0.116673  
         H18       1.0000    0.39240   0.03720   0.00800   Biso      1.000     H          0.118525  
         H19       1.0000    0.43860   0.77000   0.14400   Biso      1.000     H          0.12377   
         H20       1.0000    0.16230   0.93430   0.25560   Biso      1.000     H          0.12337   
         H21       1.0000    0.36760   0.16670   0.21590   Biso      1.000     H          0.117236  
         H22       1.0000    0.47600   0.38850   0.92050   Biso      1.000     H          0.1144    
         H23       1.0000    0.34460   0.22560   0.84860   Biso      1.000     H          0.12434   
         H24       1.0000    0.64550   0.00300   0.10590   Biso      1.000     H          0.127998  
         H25       1.0000    0.08940   0.38940   0.05320   Biso      1.000     H          0.125687  
         H26       1.0000    0.85070   0.53260   0.10390   Biso      1.000     H          0.117727  
         H27       1.0000    0.44400   0.29590   0.07950   Biso      1.000     H          0.109391  
         H28       1.0000    0.62850   0.73590   0.03200   Biso      1.000     H          0.120936  
         H29       1.0000    0.25300   0.68910   0.90390   Biso      1.000     H          0.118298  
         H30       1.0000    0.95590   0.22470   0.98440   Biso      1.000     H          0.131373  
         N1        1.0000    0.04820   0.58170   0.23450   Biso      1.000     N          -0.392987           
         N2        1.0000    0.98997   0.01550   0.83993   Biso      1.000     N          -0.376574           
         N3        1.0000    0.61450   0.88860   0.89630   Biso      1.000     N          -0.391107           
         N4        1.0000    0.68380   0.71730   0.73450   Biso      1.000     N          -0.392478           
         N5        1.0000    0.71510   0.48920   0.39630   Biso      1.000     N          -0.390608           
         N6        1.0000    0.64457   0.17010   0.33993   Biso      1.000     N          -0.379303           
         O1        1.0000    0.33512   0.60128   0.05940   Biso      1.000     O          -0.414494           
         O2        1.0000    0.53354   0.07258   0.55656   Biso      1.000     O          -0.400756           
         O3        1.0000    0.83932   0.60548   0.55940   Biso      1.000     O          -0.41359  
         O4        1.0000    0.10743   0.09186   0.62511   Biso      1.000     O          -0.425989           
         O5        1.0000    0.87086   0.90990   0.05656   Biso      1.000     O          -0.399866           
         O6        1.0000    0.78303   0.26746   0.12511   Biso      1.000     O          -0.427859 