
##########################################################################
#               Crystallographic Information Format file
#               Produced by PyCifRW module
#
#  This is a CIF file.  CIF has been adopted by the International
#  Union of Crystallography as the standard for data archiving and
#  transmission.
#
#  For information on this file format, follow the CIF links at
#  http://www.iucr.org
##########################################################################

data_image0

_cell_length_a                          5.2504
_cell_length_b                          8.2896
_cell_length_c                          16.4629
_cell_angle_alpha                       90
_cell_angle_beta                        93.912
_cell_angle_gamma                       90
_symmetry_space_group_name_H-M          'P 1'
_symmetry_int_tables_number             1
loop_
  _symmetry_equiv_pos_as_xyz
         'x, y, z' 
loop_
  _atom_site_label
  _atom_site_occupancy
  _atom_site_fract_x
  _atom_site_fract_y
  _atom_site_fract_z
  _atom_site_thermal_displace_type
  _atom_site_B_iso_or_equiv
  _atom_site_type_symbol
  _atom_site_charge
         C1        1.0000    0.69890   0.75110   0.14480   Biso      1.000     C          -0.826707           
         C2        1.0000    0.80110   0.25110   0.35520   Biso      1.000     C          -0.8267059999999999           
         C3        1.0000    0.30110   0.24890   0.85520   Biso      1.000     C          -0.8267040000000001           
         C4        1.0000    0.19890   0.74890   0.64480   Biso      1.000     C          -0.8267049999999999           
         H1        1.0000    0.81500   0.84460   0.15300   Biso      1.000     H          0.23497800000000002           
         H2        1.0000    0.53920   0.79110   0.11620   Biso      1.000     H          0.233242  
         H3        1.0000    0.68500   0.34460   0.34700   Biso      1.000     H          0.23497800000000002           
         H4        1.0000    0.96080   0.29110   0.38380   Biso      1.000     H          0.233242  
         H5        1.0000    0.18500   0.15540   0.84700   Biso      1.000     H          0.23497800000000002           
         H6        1.0000    0.31500   0.65540   0.65300   Biso      1.000     H          0.23497800000000002           
         H7        1.0000    0.03920   0.70890   0.61620   Biso      1.000     H          0.233242  
         H8        1.0000    0.46080   0.20890   0.88380   Biso      1.000     H          0.233242  
         O1        1.0000    0.63630   0.17630   0.19949   Biso      1.000     O          -0.867501           
         O2        1.0000    0.32580   0.54060   0.92476   Biso      1.000     O          -0.878292           
         O3        1.0000    0.88520   0.42680   0.88817   Biso      1.000     O          -0.7954979999999999           
         O4        1.0000    0.48780   0.49060   0.76744   Biso      1.000     O          -0.833836           
         O5        1.0000    0.57430   0.20440   0.72577   Biso      1.000     O          -0.8345   
         O6        1.0000    0.51220   0.50940   0.23256   Biso      1.000     O          -0.833838           
         O7        1.0000    0.11480   0.57320   0.11183   Biso      1.000     O          -0.795496           
         O8        1.0000    0.15930   0.30790   0.00435   Biso      1.000     O          -0.893222           
         O9        1.0000    0.67420   0.45940   0.07524   Biso      1.000     O          -0.8782840000000001           
         O10       1.0000    0.65930   0.19210   0.50435   Biso      1.000     O          -0.8932110000000001           
         O11       1.0000    0.07430   0.29560   0.22577   Biso      1.000     O          -0.834493           
         O12       1.0000    0.98780   0.00940   0.26744   Biso      1.000     O          -0.833836           
         O13       1.0000    0.38520   0.07320   0.38817   Biso      1.000     O          -0.795497           
         O14       1.0000    0.13630   0.32370   0.69949   Biso      1.000     O          -0.8675   
         O15       1.0000    0.82580   0.95940   0.42476   Biso      1.000     O          -0.878288           
         O16       1.0000    0.86370   0.67630   0.30051   Biso      1.000     O          -0.8675   
         O17       1.0000    0.34070   0.80790   0.49565   Biso      1.000     O          -0.893217           
         O18       1.0000    0.84070   0.69210   0.99565   Biso      1.000     O          -0.8932129999999999           
         O19       1.0000    0.01220   0.99060   0.73256   Biso      1.000     O          -0.833834           
         O20       1.0000    0.61480   0.92680   0.61183   Biso      1.000     O          -0.7954979999999999           
         O21       1.0000    0.17420   0.04060   0.57524   Biso      1.000     O          -0.878292           
         O22       1.0000    0.36370   0.82370   0.80051   Biso      1.000     O          -0.867499           
         O23       1.0000    0.42570   0.79560   0.27423   Biso      1.000     O          -0.8344959999999999           
         O24       1.0000    0.92570   0.70440   0.77423   Biso      1.000     O          -0.8344969999999999           
         P1        1.0000    0.12352   0.82105   0.74333   Biso      1.000     P          1.514823  
         P2        1.0000    0.34315   0.88924   0.57891   Biso      1.000     P          1.519476  
         P3        1.0000    0.37648   0.32105   0.75667   Biso      1.000     P          1.514822  
         P4        1.0000    0.87648   0.17895   0.25667   Biso      1.000     P          1.514823  
         P5        1.0000    0.65685   0.11076   0.42109   Biso      1.000     P          1.519477  
         P6        1.0000    0.62352   0.67895   0.24333   Biso      1.000     P          1.514822  
         P7        1.0000    0.84315   0.61076   0.07891   Biso      1.000     P          1.519477  
         P8        1.0000    0.15685   0.38924   0.92109   Biso      1.000     P          1.519477  
         Pu1       1.0000    0.35179   0.34291   0.13277   Biso      1.000     Pu          2.427023  
         Pu2       1.0000    0.14821   0.84291   0.36723   Biso      1.000     Pu          2.42702   
         Pu3       1.0000    0.64821   0.65709   0.86723   Biso      1.000     Pu          2.427019  
         Pu4       1.0000    0.85179   0.15709   0.63277   Biso      1.000     Pu          2.42702 