
##########################################################################
#               Crystallographic Information Format file
#               Produced by PyCifRW module
#
#  This is a CIF file.  CIF has been adopted by the International
#  Union of Crystallography as the standard for data archiving and
#  transmission.
#
#  For information on this file format, follow the CIF links at
#  http://www.iucr.org
##########################################################################

data_image0

_cell_length_a                          22.803
_cell_length_b                          13.4571
_cell_length_c                          15.5637
_cell_angle_alpha                       90
_cell_angle_beta                        93.761
_cell_angle_gamma                       90
_symmetry_space_group_name_H-M          'P 1'
_symmetry_int_tables_number             1
loop_
  _symmetry_equiv_pos_as_xyz
         'x, y, z' 
loop_
  _atom_site_label
  _atom_site_occupancy
  _atom_site_fract_x
  _atom_site_fract_y
  _atom_site_fract_z
  _atom_site_thermal_displace_type
  _atom_site_B_iso_or_equiv
  _atom_site_type_symbol
  _atom_site_charge
         C1        1.0000    0.35050   0.00890   0.04180   Biso      1.000     C          -0.014228           
         C2        1.0000    0.42110   0.54660   0.86820   Biso      1.000     C          0.646173  
         C3        1.0000    0.16510   0.31330   0.13220   Biso      1.000     C          0.693792  
         C4        1.0000    0.46460   0.58020   0.93860   Biso      1.000     C          -0.14211600000000002          
         C5        1.0000    0.42870   0.53760   0.62970   Biso      1.000     C          0.691916  
         C6        1.0000    0.20320   0.47980   0.93560   Biso      1.000     C          -0.129151           
         C7        1.0000    0.12830   0.45080   0.03130   Biso      1.000     C          -0.042267           
         C8        1.0000    0.23810   0.85350   0.53710   Biso      1.000     C          -0.036083           
         C9        1.0000    0.16800   0.38170   0.05810   Biso      1.000     C          -0.12900599999999998          
         C10       1.0000    0.47870   0.67530   0.96430   Biso      1.000     C          -0.034513999999999996         
         C11       1.0000    0.48320   0.41460   0.53650   Biso      1.000     C          -0.029207999999999998         
         C12       1.0000    0.21680   0.91510   0.46830   Biso      1.000     C          -0.029841000000000003         
         C13       1.0000    0.14950   0.50890   0.95820   Biso      1.000     C          -0.014218999999999999         
         C14       1.0000    0.02130   0.17530   0.03570   Biso      1.000     C          -0.034515           
         C15       1.0000    0.01680   0.91460   0.46350   Biso      1.000     C          -0.0292   
         C16       1.0000    0.46740   0.50750   0.55980   Biso      1.000     C          -0.142    
         C17       1.0000    0.28320   0.41510   0.53170   Biso      1.000     C          -0.02985  
         C18       1.0000    0.23730   0.52200   0.86670   Biso      1.000     C          0.703245  
         C19       1.0000    0.25480   0.05170   0.37090   Biso      1.000     C          0.662914  
         C20       1.0000    0.37170   0.95080   0.96870   Biso      1.000     C          -0.042265           
         C21       1.0000    0.29680   0.97980   0.06440   Biso      1.000     C          -0.129138           
         C22       1.0000    0.07130   0.03760   0.37030   Biso      1.000     C          0.691917  
         C23       1.0000    0.03540   0.08020   0.06140   Biso      1.000     C          -0.14211500000000002          
         C24       1.0000    0.33490   0.81330   0.86780   Biso      1.000     C          0.693792  
         C25       1.0000    0.07890   0.04660   0.13180   Biso      1.000     C          0.646174  
         C26       1.0000    0.33270   0.81600   0.62650   Biso      1.000     C          0.653813  
         C27       1.0000    0.26190   0.35350   0.46290   Biso      1.000     C          -0.036075           
         C28       1.0000    0.16730   0.31600   0.37350   Biso      1.000     C          0.653814  
         C29       1.0000    0.24520   0.55170   0.62910   Biso      1.000     C          0.662912  
         C30       1.0000    0.24010   0.47700   0.56060   Biso      1.000     C          -0.130527           
         C31       1.0000    0.20420   0.36730   0.44060   Biso      1.000     C          -0.125332           
         C32       1.0000    0.29580   0.86730   0.55940   Biso      1.000     C          -0.125328           
         C33       1.0000    0.25990   0.97700   0.43940   Biso      1.000     C          -0.130531           
         C34       1.0000    0.26270   0.02200   0.13330   Biso      1.000     C          0.7032430000000001  
         C35       1.0000    0.85050   0.50890   0.04180   Biso      1.000     C          -0.014221000000000001         
         C36       1.0000    0.78320   0.91510   0.53170   Biso      1.000     C          -0.029843           
         C37       1.0000    0.51680   0.41460   0.46350   Biso      1.000     C          -0.029226           
         C38       1.0000    0.96460   0.08020   0.93860   Biso      1.000     C          -0.142121           
         C39       1.0000    0.92870   0.03760   0.62970   Biso      1.000     C          0.691918  
         C40       1.0000    0.70320   0.97980   0.93560   Biso      1.000     C          -0.129157           
         C41       1.0000    0.62830   0.95080   0.03130   Biso      1.000     C          -0.042265           
         C42       1.0000    0.66800   0.88170   0.05810   Biso      1.000     C          -0.12901300000000002          
         C43       1.0000    0.96740   0.00750   0.55980   Biso      1.000     C          -0.14201  
         C44       1.0000    0.66510   0.81330   0.13220   Biso      1.000     C          0.6937949999999999  
         C45       1.0000    0.97870   0.17530   0.96430   Biso      1.000     C          -0.034503           
         C46       1.0000    0.71680   0.41510   0.46830   Biso      1.000     C          -0.029836           
         C47       1.0000    0.64950   0.00890   0.95820   Biso      1.000     C          -0.014211000000000001         
         C48       1.0000    0.66730   0.81600   0.37350   Biso      1.000     C          0.6538149999999999  
         C49       1.0000    0.74520   0.05170   0.62910   Biso      1.000     C          0.662913  
         C50       1.0000    0.74010   0.97700   0.56060   Biso      1.000     C          -0.13053  
         C51       1.0000    0.70420   0.86730   0.44060   Biso      1.000     C          -0.125345           
         C52       1.0000    0.98320   0.91460   0.53650   Biso      1.000     C          -0.029220999999999997         
         C53       1.0000    0.92110   0.04660   0.86820   Biso      1.000     C          0.646174  
         C54       1.0000    0.73810   0.35350   0.53710   Biso      1.000     C          -0.036088999999999996         
         C55       1.0000    0.73730   0.02200   0.86670   Biso      1.000     C          0.703242  
         C56       1.0000    0.52130   0.67530   0.03570   Biso      1.000     C          -0.03451  
         C57       1.0000    0.53260   0.50750   0.44020   Biso      1.000     C          -0.142    
         C58       1.0000    0.83200   0.38170   0.94190   Biso      1.000     C          -0.129045           
         C59       1.0000    0.87170   0.45080   0.96870   Biso      1.000     C          -0.042237000000000004         
         C60       1.0000    0.79680   0.47980   0.06440   Biso      1.000     C          -0.129144           
         C61       1.0000    0.57130   0.53760   0.37030   Biso      1.000     C          0.691918  
         C62       1.0000    0.53540   0.58020   0.06140   Biso      1.000     C          -0.142112           
         C63       1.0000    0.83490   0.31330   0.86780   Biso      1.000     C          0.6937989999999999  
         C64       1.0000    0.57890   0.54660   0.13180   Biso      1.000     C          0.646173  
         C65       1.0000    0.76190   0.85350   0.46290   Biso      1.000     C          -0.036068           
         C66       1.0000    0.76270   0.52200   0.13330   Biso      1.000     C          0.703241  
         C67       1.0000    0.79580   0.36730   0.55940   Biso      1.000     C          -0.125329           
         C68       1.0000    0.75990   0.47700   0.43940   Biso      1.000     C          -0.130531           
         C69       1.0000    0.75480   0.55170   0.37090   Biso      1.000     C          0.662913  
         C70       1.0000    0.83270   0.31600   0.62650   Biso      1.000     C          0.6538149999999999  
         C71       1.0000    0.33200   0.88170   0.94190   Biso      1.000     C          -0.12900999999999999          
         C72       1.0000    0.03260   0.00750   0.44020   Biso      1.000     C          -0.142002           
         Mg1       1.0000    0.74815   0.19108   0.74504   Biso      1.000     Mg          1.462338  
         Mg2       1.0000    0.65400   0.47119   0.23796   Biso      1.000     Mg          1.455025  
         Mg3       1.0000    0.75185   0.69108   0.25496   Biso      1.000     Mg          1.462342  
         Mg4       1.0000    0.59420   0.72721   0.26594   Biso      1.000     Mg          1.450911  
         Mg5       1.0000    0.15400   0.97119   0.23796   Biso      1.000     Mg          1.455031  
         Mg6       1.0000    0.34600   0.47119   0.76204   Biso      1.000     Mg          1.455033  
         Mg7       1.0000    0.09420   0.22721   0.26594   Biso      1.000     Mg          1.450922  
         Mg8       1.0000    0.25185   0.19108   0.25496   Biso      1.000     Mg          1.462337  
         Mg9       1.0000    0.24815   0.69108   0.74504   Biso      1.000     Mg          1.462335  
         Mg10      1.0000    0.84600   0.97119   0.76204   Biso      1.000     Mg          1.4550239999999999  
         Mg11      1.0000    0.90580   0.22721   0.73406   Biso      1.000     Mg          1.450911  
         Mg12      1.0000    0.40580   0.72721   0.73406   Biso      1.000     Mg          1.450919  
         O1        1.0000    0.70820   0.11910   0.63240   Biso      1.000     O          -0.608557           
         O2        1.0000    0.61310   0.83770   0.36400   Biso      1.000     O          -0.607171           
         O3        1.0000    0.79180   0.25920   0.84880   Biso      1.000     O          -0.6721   
         O4        1.0000    0.81070   0.25260   0.67350   Biso      1.000     O          -0.726677           
         O5        1.0000    0.79180   0.61910   0.36760   Biso      1.000     O          -0.608558           
         O6        1.0000    0.88690   0.33770   0.63600   Biso      1.000     O          -0.607171           
         O7        1.0000    0.70820   0.75920   0.15120   Biso      1.000     O          -0.6721020000000001           
         O8        1.0000    0.91030   0.95610   0.86370   Biso      1.000     O          -0.5935239999999999           
         O9        1.0000    0.89593   0.10800   0.81650   Biso      1.000     O          -0.735759           
         O10       1.0000    0.71430   0.09190   0.82500   Biso      1.000     O          -0.6664100000000001           
         O11       1.0000    0.90650   0.96790   0.66990   Biso      1.000     O          -0.667629           
         O12       1.0000    0.71070   0.54730   0.31680   Biso      1.000     O          -0.7462529999999999           
         O13       1.0000    0.78510   0.98100   0.85440   Biso      1.000     O          -0.6792060000000001           
         O14       1.0000    0.92370   0.12820   0.64090   Biso      1.000     O          -0.6694319999999999           
         O15       1.0000    0.58970   0.45610   0.13630   Biso      1.000     O          -0.593525           
         O16       1.0000    0.60407   0.60800   0.18350   Biso      1.000     O          -0.735755           
         O17       1.0000    0.57630   0.62820   0.35910   Biso      1.000     O          -0.6694319999999999           
         O18       1.0000    0.71490   0.48100   0.14560   Biso      1.000     O          -0.6792050000000001           
         O19       1.0000    0.78930   0.04730   0.68320   Biso      1.000     O          -0.7462529999999999           
         O20       1.0000    0.78570   0.59190   0.17500   Biso      1.000     O          -0.666411           
         O21       1.0000    0.61840   0.81840   0.17050   Biso      1.000     O          -0.668906           
         O22       1.0000    0.68930   0.75260   0.32650   Biso      1.000     O          -0.726676           
         O23       1.0000    0.88160   0.31840   0.82950   Biso      1.000     O          -0.668906           
         O24       1.0000    0.18930   0.25260   0.32650   Biso      1.000     O          -0.726676           
         O25       1.0000    0.31070   0.75260   0.67350   Biso      1.000     O          -0.726676           
         O26       1.0000    0.29180   0.11910   0.36760   Biso      1.000     O          -0.608556           
         O27       1.0000    0.38690   0.83770   0.63600   Biso      1.000     O          -0.607171           
         O28       1.0000    0.20820   0.25920   0.15120   Biso      1.000     O          -0.6721050000000001           
         O29       1.0000    0.41030   0.45610   0.86370   Biso      1.000     O          -0.593526           
         O30       1.0000    0.39593   0.60800   0.81650   Biso      1.000     O          -0.735755           
         O31       1.0000    0.11840   0.31840   0.17050   Biso      1.000     O          -0.668906           
         O32       1.0000    0.40650   0.46790   0.66990   Biso      1.000     O          -0.667629           
         O33       1.0000    0.21430   0.59190   0.82500   Biso      1.000     O          -0.666411           
         O34       1.0000    0.21070   0.04730   0.31680   Biso      1.000     O          -0.746254           
         O35       1.0000    0.59350   0.46790   0.33010   Biso      1.000     O          -0.6676300000000001           
         O36       1.0000    0.28510   0.48100   0.85440   Biso      1.000     O          -0.6792090000000001           
         O37       1.0000    0.07630   0.12820   0.35910   Biso      1.000     O          -0.6694359999999999           
         O38       1.0000    0.21490   0.98100   0.14560   Biso      1.000     O          -0.679208           
         O39       1.0000    0.28930   0.54730   0.68320   Biso      1.000     O          -0.7462529999999999           
         O40       1.0000    0.28570   0.09190   0.17500   Biso      1.000     O          -0.666411           
         O41       1.0000    0.09350   0.96790   0.33010   Biso      1.000     O          -0.6676300000000001           
         O42       1.0000    0.38160   0.81840   0.82950   Biso      1.000     O          -0.668905           
         O43       1.0000    0.10407   0.10800   0.18350   Biso      1.000     O          -0.735758           
         O44       1.0000    0.08970   0.95610   0.13630   Biso      1.000     O          -0.593527           
         O45       1.0000    0.29180   0.75920   0.84880   Biso      1.000     O          -0.672103           
         O46       1.0000    0.11310   0.33770   0.36400   Biso      1.000     O          -0.607172           
         O47       1.0000    0.20820   0.61910   0.63240   Biso      1.000     O          -0.608557           
         O48       1.0000    0.42370   0.62820   0.64090   Biso      1.000     O          -0.669434           
         S1        1.0000    0.50000   0.59549   0.50000   Biso      1.000     S          0.18903699999999998           
         S2        1.0000    0.00000   0.09549   0.50000   Biso      1.000     S          0.18904   
         S3        1.0000    0.26978   0.88479   0.00049   Biso      1.000     S          0.16057000000000002           
         S4        1.0000    0.82555   0.45765   0.49698   Biso      1.000     S          0.226081  
         S5        1.0000    0.17445   0.45765   0.50302   Biso      1.000     S          0.22608000000000003           
         S6        1.0000    0.67445   0.95765   0.50302   Biso      1.000     S          0.226081  
         S7        1.0000    0.76978   0.38479   0.00049   Biso      1.000     S          0.160571  
         S8        1.0000    0.23022   0.38479   0.99951   Biso      1.000     S          0.160572  
         S9        1.0000    0.32555   0.95765   0.49698   Biso      1.000     S          0.22608000000000003           
         S10       1.0000    0.00000   0.99283   0.00000   Biso      1.000     S          0.24918099999999999           
         S11       1.0000    0.73022   0.88479   0.99951   Biso      1.000     S          0.160572  
         S12       1.0000    0.50000   0.49283   0.00000   Biso      1.000     S          0.249187 