
##########################################################################
#               Crystallographic Information Format file
#               Produced by PyCifRW module
#
#  This is a CIF file.  CIF has been adopted by the International
#  Union of Crystallography as the standard for data archiving and
#  transmission.
#
#  For information on this file format, follow the CIF links at
#  http://www.iucr.org
##########################################################################

data_image0

_cell_length_a                          9.776
_cell_length_b                          16.337
_cell_length_c                          21.534
_cell_angle_alpha                       103.82
_cell_angle_beta                        100.74
_cell_angle_gamma                       95.87
_symmetry_space_group_name_H-M          'P 1'
_symmetry_int_tables_number             1
loop_
  _symmetry_equiv_pos_as_xyz
         'x, y, z' 
loop_
  _atom_site_label
  _atom_site_occupancy
  _atom_site_fract_x
  _atom_site_fract_y
  _atom_site_fract_z
  _atom_site_thermal_displace_type
  _atom_site_B_iso_or_equiv
  _atom_site_type_symbol
  _atom_site_charge
         C1        1.0000    0.46880   0.57370   0.90110   Biso      1.000     C          0.6498079999999999  
         C2        1.0000    0.05080   0.46740   0.79050   Biso      1.000     C          -0.10778099999999999          
         C3        1.0000    0.93310   0.44460   0.81450   Biso      1.000     C          -0.035243000000000003         
         C4        1.0000    0.81080   0.39910   0.77130   Biso      1.000     C          -0.16353199999999998          
         C5        1.0000    0.80070   0.37380   0.70320   Biso      1.000     C          0.063613  
         C6        1.0000    0.42000   0.30510   0.61740   Biso      1.000     C          0.083446  
         C7        1.0000    0.54020   0.35060   0.66290   Biso      1.000     C          -0.190047           
         C8        1.0000    0.67100   0.32620   0.65700   Biso      1.000     C          0.118248  
         C9        1.0000    0.67320   0.25720   0.60730   Biso      1.000     C          -0.185408           
         C10       1.0000    0.54840   0.21350   0.56470   Biso      1.000     C          0.086781  
         C11       1.0000    0.53160   0.62020   0.71980   Biso      1.000     C          -0.125614           
         C12       1.0000    0.04550   0.44230   0.72400   Biso      1.000     C          -0.080937           
         C13       1.0000    0.63270   0.58770   0.75640   Biso      1.000     C          -0.088506           
         C14       1.0000    0.49380   0.59110   0.83890   Biso      1.000     C          -0.022088999999999998         
         C15       1.0000    0.39440   0.62300   0.80120   Biso      1.000     C          -0.156521           
         C16       1.0000    0.41170   0.63940   0.74190   Biso      1.000     C          0.068089  
         C17       1.0000    0.06510   0.69770   0.67060   Biso      1.000     C          0.089322  
         C18       1.0000    0.16140   0.66210   0.70520   Biso      1.000     C          -0.19582  
         C19       1.0000    0.30290   0.67430   0.70360   Biso      1.000     C          0.114348  
         C20       1.0000    0.33580   0.72640   0.66350   Biso      1.000     C          -0.18679500000000002          
         C21       1.0000    0.22970   0.76090   0.63040   Biso      1.000     C          0.082687  
         C22       1.0000    0.41640   0.35920   0.89360   Biso      1.000     C          0.653929  
         C23       1.0000    0.29620   0.18780   0.70500   Biso      1.000     C          -0.11577  
         C24       1.0000    0.61670   0.57580   0.81780   Biso      1.000     C          -0.112696           
         C25       1.0000    0.20330   0.23720   0.72760   Biso      1.000     C          -0.08557999999999999          
         C26       1.0000    0.92440   0.39530   0.68210   Biso      1.000     C          -0.12642799999999998          
         C27       1.0000    0.24740   0.90290   0.29290   Biso      1.000     C          0.082914  
         C28       1.0000    0.46840   0.37980   0.28020   Biso      1.000     C          -0.125614           
         C29       1.0000    0.36730   0.41230   0.24360   Biso      1.000     C          -0.088505           
         C30       1.0000    0.38330   0.42420   0.18220   Biso      1.000     C          -0.112696           
         C31       1.0000    0.50620   0.40890   0.16110   Biso      1.000     C          -0.022086           
         C32       1.0000    0.60560   0.37700   0.19880   Biso      1.000     C          -0.15652  
         C33       1.0000    0.58830   0.36060   0.25810   Biso      1.000     C          0.06809   
         C34       1.0000    0.93490   0.30230   0.32940   Biso      1.000     C          0.089322  
         C35       1.0000    0.83860   0.33790   0.29480   Biso      1.000     C          -0.195819           
         C36       1.0000    0.69710   0.32570   0.29640   Biso      1.000     C          0.114348  
         C37       1.0000    0.66420   0.27360   0.33650   Biso      1.000     C          -0.18679400000000002          
         C38       1.0000    0.94190   0.46900   0.88770   Biso      1.000     C          0.648073  
         C39       1.0000    0.77030   0.23910   0.36960   Biso      1.000     C          0.082688  
         C40       1.0000    0.70380   0.81220   0.29500   Biso      1.000     C          -0.11577  
         C41       1.0000    0.79670   0.76280   0.27240   Biso      1.000     C          -0.085579           
         C42       1.0000    0.75500   0.70560   0.20940   Biso      1.000     C          -0.103604           
         C43       1.0000    0.62320   0.70000   0.17220   Biso      1.000     C          -0.033029           
         C44       1.0000    0.53050   0.75240   0.19700   Biso      1.000     C          -0.153515           
         C45       1.0000    0.56990   0.80870   0.25750   Biso      1.000     C          0.063915  
         C46       1.0000    0.43660   0.99780   0.35150   Biso      1.000     C          0.084008  
         C47       1.0000    0.52680   0.94590   0.32790   Biso      1.000     C          -0.185728           
         C48       1.0000    0.47350   0.86580   0.28370   Biso      1.000     C          0.122137  
         C49       1.0000    0.32710   0.84670   0.26580   Biso      1.000     C          -0.197148           
         C50       1.0000    0.58360   0.64080   0.10640   Biso      1.000     C          0.653927  
         C51       1.0000    0.24500   0.29440   0.79060   Biso      1.000     C          -0.10360699999999999          
         C52       1.0000    0.53120   0.42630   0.09890   Biso      1.000     C          0.6498079999999999  
         C53       1.0000    0.94920   0.53260   0.20950   Biso      1.000     C          -0.107779           
         C54       1.0000    0.95450   0.55770   0.27600   Biso      1.000     C          -0.08093600000000001          
         C55       1.0000    0.18920   0.60090   0.22870   Biso      1.000     C          -0.16353299999999998          
         C56       1.0000    0.19930   0.62620   0.29680   Biso      1.000     C          0.063614  
         C57       1.0000    0.07560   0.60470   0.31790   Biso      1.000     C          -0.126427           
         C58       1.0000    0.58000   0.69490   0.38260   Biso      1.000     C          0.083446  
         C59       1.0000    0.45980   0.64940   0.33710   Biso      1.000     C          -0.190046           
         C60       1.0000    0.32900   0.67380   0.34300   Biso      1.000     C          0.118247  
         C61       1.0000    0.32680   0.74280   0.39270   Biso      1.000     C          -0.185407           
         C62       1.0000    0.06690   0.55540   0.18550   Biso      1.000     C          -0.035242           
         C63       1.0000    0.45160   0.78650   0.43530   Biso      1.000     C          0.086781  
         C64       1.0000    0.05810   0.53100   0.11230   Biso      1.000     C          0.648073  
         C65       1.0000    0.75260   0.09710   0.70710   Biso      1.000     C          0.082914  
         C66       1.0000    0.67290   0.15330   0.73420   Biso      1.000     C          -0.197151           
         C67       1.0000    0.37680   0.30000   0.82780   Biso      1.000     C          -0.033026           
         C68       1.0000    0.52650   0.13420   0.71630   Biso      1.000     C          0.12214000000000001           
         C69       1.0000    0.47320   0.05410   0.67210   Biso      1.000     C          -0.18573800000000001          
         C70       1.0000    0.46950   0.24760   0.80300   Biso      1.000     C          -0.15351900000000002          
         C71       1.0000    0.43010   0.19130   0.74250   Biso      1.000     C          0.063914  
         C72       1.0000    0.56340   0.00220   0.64850   Biso      1.000     C          0.084016  
         Cu1       1.0000    0.18475   0.05888   0.38233   Biso      1.000     Cu          0.152038  
         Cu2       1.0000    0.75150   0.82579   0.49858   Biso      1.000     Cu          0.14511300000000002           
         Cu3       1.0000    0.04016   0.18735   0.40788   Biso      1.000     Cu          0.142348  
         Cu4       1.0000    0.95984   0.81265   0.59212   Biso      1.000     Cu          0.142348  
         Cu5       1.0000    0.24850   0.17421   0.50142   Biso      1.000     Cu          0.14511400000000002           
         Cu6       1.0000    0.98878   0.05905   0.46283   Biso      1.000     Cu          0.11666900000000001           
         Cu7       1.0000    0.01122   0.94095   0.53717   Biso      1.000     Cu          0.11666800000000001           
         Cu8       1.0000    0.81525   0.94112   0.61767   Biso      1.000     Cu          0.152039  
         H1        1.0000    0.12340   0.45710   0.70770   Biso      1.000     H          0.113381  
         H2        1.0000    0.13230   0.49930   0.81920   Biso      1.000     H          0.114282  
         H3        1.0000    0.92400   0.37690   0.63780   Biso      1.000     H          0.108878  
         H4        1.0000    0.68750   0.36590   0.18440   Biso      1.000     H          0.123396  
         H5        1.0000    0.31170   0.44210   0.15610   Biso      1.000     H          0.110597  
         H6        1.0000    0.73300   0.38480   0.78790   Biso      1.000     H          0.12181700000000001           
         H7        1.0000    0.28810   0.42650   0.25930   Biso      1.000     H          0.113079  
         H8        1.0000    0.26700   0.61520   0.21210   Biso      1.000     H          0.12181600000000001           
         H9        1.0000    0.46650   0.60350   0.30320   Biso      1.000     H          0.126722  
         H10       1.0000    0.66660   0.67740   0.37940   Biso      1.000     H          0.089834  
         H11       1.0000    0.57190   0.26220   0.34100   Biso      1.000     H          0.12356800000000001           
         H12       1.0000    0.28400   0.79570   0.23540   Biso      1.000     H          0.128637  
         H13       1.0000    0.24150   0.76080   0.39810   Biso      1.000     H          0.12321800000000001           
         H14       1.0000    0.62360   0.96370   0.34110   Biso      1.000     H          0.12201400000000001           
         H15       1.0000    0.44790   0.83430   0.46830   Biso      1.000     H          0.09047100000000001           
         H16       1.0000    0.02850   0.31360   0.32680   Biso      1.000     H          0.08658099999999999           
         H17       1.0000    0.44060   0.74880   0.17180   Biso      1.000     H          0.122751  
         H18       1.0000    0.81760   0.67150   0.19310   Biso      1.000     H          0.10813800000000001           
         H19       1.0000    0.88610   0.76660   0.29800   Biso      1.000     H          0.109074  
         H20       1.0000    0.86850   0.37160   0.26910   Biso      1.000     H          0.11956099999999999           
         H21       1.0000    0.73040   0.84960   0.33670   Biso      1.000     H          0.107331  
         H22       1.0000    0.74530   0.20430   0.39540   Biso      1.000     H          0.08896799999999999           
         H23       1.0000    0.15000   0.88720   0.28050   Biso      1.000     H          0.08752   
         H24       1.0000    0.47600   0.05020   0.38080   Biso      1.000     H          0.083563  
         H25       1.0000    0.18240   0.32850   0.80690   Biso      1.000     H          0.10814000000000001           
         H26       1.0000    0.53350   0.39650   0.69680   Biso      1.000     H          0.126723  
         H27       1.0000    0.07600   0.62310   0.36220   Biso      1.000     H          0.108878  
         H28       1.0000    0.33340   0.32260   0.62060   Biso      1.000     H          0.089835  
         H29       1.0000    0.68830   0.55790   0.84390   Biso      1.000     H          0.110598  
         H30       1.0000    0.85000   0.11280   0.71950   Biso      1.000     H          0.087521  
         H31       1.0000    0.31250   0.63410   0.81560   Biso      1.000     H          0.123396  
         H32       1.0000    0.71600   0.20430   0.76460   Biso      1.000     H          0.128638  
         H33       1.0000    0.97150   0.68640   0.67320   Biso      1.000     H          0.08658099999999999           
         H34       1.0000    0.13150   0.62840   0.73090   Biso      1.000     H          0.11956099999999999           
         H35       1.0000    0.37640   0.03630   0.65890   Biso      1.000     H          0.12201600000000001           
         H36       1.0000    0.42810   0.73780   0.65900   Biso      1.000     H          0.12356800000000001           
         H37       1.0000    0.25470   0.79570   0.60460   Biso      1.000     H          0.08896799999999999           
         H38       1.0000    0.52400   0.94980   0.61920   Biso      1.000     H          0.083563  
         H39       1.0000    0.26960   0.15040   0.66330   Biso      1.000     H          0.107332  
         H40       1.0000    0.11390   0.23340   0.70200   Biso      1.000     H          0.109075  
         H41       1.0000    0.55940   0.25120   0.82820   Biso      1.000     H          0.122752  
         H42       1.0000    0.54400   0.62920   0.68000   Biso      1.000     H          0.11592999999999999           
         H43       1.0000    0.45600   0.37080   0.32000   Biso      1.000     H          0.11592999999999999           
         H44       1.0000    0.71190   0.57350   0.74070   Biso      1.000     H          0.11308   
         H45       1.0000    0.86770   0.50070   0.18080   Biso      1.000     H          0.114281  
         H46       1.0000    0.75850   0.23920   0.60190   Biso      1.000     H          0.12321900000000001           
         H47       1.0000    0.87660   0.54290   0.29230   Biso      1.000     H          0.11338   
         H48       1.0000    0.55210   0.16570   0.53170   Biso      1.000     H          0.09047100000000001           
         I1        1.0000    0.23756   0.00696   0.50045   Biso      1.000     I          -0.220181           
         I2        1.0000    0.01765   0.22328   0.53421   Biso      1.000     I          -0.304419           
         I3        1.0000    0.76244   0.99304   0.49955   Biso      1.000     I          -0.22018200000000002          
         I4        1.0000    0.91863   0.02495   0.33184   Biso      1.000     I          -0.281113           
         I5        1.0000    0.98235   0.77672   0.46579   Biso      1.000     I          -0.30441799999999997          
         I6        1.0000    0.30128   0.21780   0.39288   Biso      1.000     I          -0.328648           
         I7        1.0000    0.08137   0.97505   0.66816   Biso      1.000     I          -0.281112           
         I8        1.0000    0.69872   0.78220   0.60712   Biso      1.000     I          -0.328648           
         La1       1.0000    0.72126   0.47998   0.00166   Biso      1.000     La          1.9787599999999999  
         La2       1.0000    0.27874   0.52002   0.99834   Biso      1.000     La          1.978762  
         N1        1.0000    0.09580   0.74730   0.63340   Biso      1.000     N          -0.150101           
         N2        1.0000    0.70300   0.02120   0.66430   Biso      1.000     N          -0.1591   
         N3        1.0000    0.57570   0.76280   0.43080   Biso      1.000     N          -0.158843           
         N4        1.0000    0.42430   0.23720   0.56920   Biso      1.000     N          -0.158843           
         N5        1.0000    0.29700   0.97880   0.33570   Biso      1.000     N          -0.159099           
         N6        1.0000    0.90420   0.25270   0.36660   Biso      1.000     N          -0.1501   
         O1        1.0000    0.94900   0.48970   0.07620   Biso      1.000     O          -0.649651           
         O2        1.0000    0.56150   0.54750   0.93560   Biso      1.000     O          -0.6763939999999999           
         O3        1.0000    0.82980   0.44510   0.90580   Biso      1.000     O          -0.673882           
         O4        1.0000    0.35300   0.58790   0.91530   Biso      1.000     O          -0.620428           
         O5        1.0000    0.32790   0.40180   0.91500   Biso      1.000     O          -0.656937           
         O6        1.0000    0.45850   0.63590   0.07320   Biso      1.000     O          -0.65408  
         O7        1.0000    0.43850   0.45250   0.06440   Biso      1.000     O          -0.6763939999999999           
         O8        1.0000    0.64700   0.41210   0.08470   Biso      1.000     O          -0.620428           
         O9        1.0000    0.17020   0.55490   0.09420   Biso      1.000     O          -0.673882           
         O10       1.0000    0.54150   0.36410   0.92680   Biso      1.000     O          -0.6540819999999999           
         O11       1.0000    0.05100   0.51030   0.92380   Biso      1.000     O          -0.649652           
         O12       1.0000    0.67210   0.59820   0.08500   Biso      1.000     O          -0.656935 