
##########################################################################
#               Crystallographic Information Format file
#               Produced by PyCifRW module
#
#  This is a CIF file.  CIF has been adopted by the International
#  Union of Crystallography as the standard for data archiving and
#  transmission.
#
#  For information on this file format, follow the CIF links at
#  http://www.iucr.org
##########################################################################

data_image0

_cell_length_a                          9.605
_cell_length_b                          16.769
_cell_length_c                          21.155
_cell_angle_alpha                       104.16
_cell_angle_beta                        100.31
_cell_angle_gamma                       97.16
_symmetry_space_group_name_H-M          'P 1'
_symmetry_int_tables_number             1
loop_
  _symmetry_equiv_pos_as_xyz
         'x, y, z' 
loop_
  _atom_site_label
  _atom_site_occupancy
  _atom_site_fract_x
  _atom_site_fract_y
  _atom_site_fract_z
  _atom_site_thermal_displace_type
  _atom_site_B_iso_or_equiv
  _atom_site_type_symbol
  _atom_site_charge
         C1        1.0000    0.47720   0.57510   0.90700   Biso      1.000     C          0.675079  
         C2        1.0000    0.06150   0.47100   0.79420   Biso      1.000     C          -0.10441700000000001          
         C3        1.0000    0.93890   0.45160   0.81860   Biso      1.000     C          -0.03841  
         C4        1.0000    0.81230   0.40580   0.77370   Biso      1.000     C          -0.160565           
         C5        1.0000    0.80820   0.37900   0.70600   Biso      1.000     C          0.063516  
         C6        1.0000    0.41980   0.30560   0.61530   Biso      1.000     C          0.092132  
         C7        1.0000    0.54070   0.35240   0.66150   Biso      1.000     C          -0.194749           
         C8        1.0000    0.67420   0.32980   0.65830   Biso      1.000     C          0.116031  
         C9        1.0000    0.67440   0.25980   0.60810   Biso      1.000     C          -0.186889           
         C10       1.0000    0.54990   0.21640   0.56540   Biso      1.000     C          0.087257  
         C11       1.0000    0.53260   0.62510   0.72300   Biso      1.000     C          -0.134193           
         C12       1.0000    0.05830   0.44430   0.72750   Biso      1.000     C          -0.078711           
         C13       1.0000    0.63620   0.59350   0.75840   Biso      1.000     C          -0.08533500000000001          
         C14       1.0000    0.49950   0.59490   0.84390   Biso      1.000     C          -0.020374           
         C15       1.0000    0.39580   0.62740   0.80800   Biso      1.000     C          -0.15838  
         C16       1.0000    0.41220   0.64370   0.74730   Biso      1.000     C          0.06587   
         C17       1.0000    0.06070   0.70080   0.67640   Biso      1.000     C          0.080721  
         C18       1.0000    0.15910   0.66300   0.70970   Biso      1.000     C          -0.194103           
         C19       1.0000    0.30200   0.68030   0.70980   Biso      1.000     C          0.120627  
         C20       1.0000    0.33930   0.73420   0.67520   Biso      1.000     C          -0.184166           
         C21       1.0000    0.23440   0.76990   0.64240   Biso      1.000     C          0.09316   
         C22       1.0000    0.42490   0.36890   0.89500   Biso      1.000     C          0.68053   
         C23       1.0000    0.29940   0.18890   0.70380   Biso      1.000     C          -0.115481           
         C24       1.0000    0.62050   0.57830   0.81950   Biso      1.000     C          -0.109797           
         C25       1.0000    0.20580   0.23850   0.72640   Biso      1.000     C          -0.089659           
         C26       1.0000    0.93300   0.39740   0.68300   Biso      1.000     C          -0.125844           
         C27       1.0000    0.23270   0.89830   0.28720   Biso      1.000     C          0.078592  
         C28       1.0000    0.46740   0.37490   0.27700   Biso      1.000     C          -0.134192           
         C29       1.0000    0.36380   0.40650   0.24160   Biso      1.000     C          -0.08533500000000001          
         C30       1.0000    0.37950   0.42170   0.18050   Biso      1.000     C          -0.109797           
         C31       1.0000    0.50050   0.40510   0.15610   Biso      1.000     C          -0.020374           
         C32       1.0000    0.60420   0.37260   0.19200   Biso      1.000     C          -0.158379           
         C33       1.0000    0.58780   0.35630   0.25270   Biso      1.000     C          0.06587   
         C34       1.0000    0.93930   0.29920   0.32360   Biso      1.000     C          0.080721  
         C35       1.0000    0.84090   0.33700   0.29030   Biso      1.000     C          -0.194103           
         C36       1.0000    0.69800   0.31970   0.29020   Biso      1.000     C          0.120627  
         C37       1.0000    0.66070   0.26580   0.32480   Biso      1.000     C          -0.184166           
         C38       1.0000    0.94330   0.47760   0.89210   Biso      1.000     C          0.675726  
         C39       1.0000    0.76560   0.23010   0.35760   Biso      1.000     C          0.09316   
         C40       1.0000    0.70060   0.81110   0.29620   Biso      1.000     C          -0.115481           
         C41       1.0000    0.79420   0.76150   0.27360   Biso      1.000     C          -0.089659           
         C42       1.0000    0.75330   0.70250   0.21010   Biso      1.000     C          -0.10582799999999999          
         C43       1.0000    0.61790   0.69410   0.17150   Biso      1.000     C          -0.027831           
         C44       1.0000    0.52240   0.74470   0.19540   Biso      1.000     C          -0.157612           
         C45       1.0000    0.56100   0.80340   0.25670   Biso      1.000     C          0.060538999999999996          
         C46       1.0000    0.43350   0.99370   0.34770   Biso      1.000     C          0.080634  
         C47       1.0000    0.52100   0.93900   0.32620   Biso      1.000     C          -0.183556           
         C48       1.0000    0.46530   0.86060   0.28090   Biso      1.000     C          0.119203  
         C49       1.0000    0.31510   0.84170   0.26160   Biso      1.000     C          -0.192191           
         C50       1.0000    0.57510   0.63110   0.10500   Biso      1.000     C          0.68053   
         C51       1.0000    0.24670   0.29750   0.78990   Biso      1.000     C          -0.10582799999999999          
         C52       1.0000    0.52280   0.42490   0.09300   Biso      1.000     C          0.675078  
         C53       1.0000    0.93850   0.52900   0.20580   Biso      1.000     C          -0.10441700000000001          
         C54       1.0000    0.94170   0.55570   0.27250   Biso      1.000     C          -0.078711           
         C55       1.0000    0.18770   0.59420   0.22630   Biso      1.000     C          -0.160565           
         C56       1.0000    0.19180   0.62100   0.29400   Biso      1.000     C          0.063516  
         C57       1.0000    0.06700   0.60260   0.31700   Biso      1.000     C          -0.125844           
         C58       1.0000    0.58020   0.69440   0.38470   Biso      1.000     C          0.092132  
         C59       1.0000    0.45930   0.64760   0.33850   Biso      1.000     C          -0.194749           
         C60       1.0000    0.32580   0.67020   0.34170   Biso      1.000     C          0.116031  
         C61       1.0000    0.32560   0.74020   0.39190   Biso      1.000     C          -0.186889           
         C62       1.0000    0.06110   0.54840   0.18140   Biso      1.000     C          -0.038409           
         C63       1.0000    0.45010   0.78360   0.43460   Biso      1.000     C          0.087257  
         C64       1.0000    0.05670   0.52240   0.10790   Biso      1.000     C          0.6757270000000001  
         C65       1.0000    0.76730   0.10170   0.71280   Biso      1.000     C          0.078593  
         C66       1.0000    0.68490   0.15830   0.73840   Biso      1.000     C          -0.192191           
         C67       1.0000    0.38210   0.30590   0.82850   Biso      1.000     C          -0.027833           
         C68       1.0000    0.53470   0.13940   0.71910   Biso      1.000     C          0.119203  
         C69       1.0000    0.47900   0.06100   0.67380   Biso      1.000     C          -0.183562           
         C70       1.0000    0.47760   0.25530   0.80460   Biso      1.000     C          -0.157612           
         C71       1.0000    0.43900   0.19660   0.74330   Biso      1.000     C          0.060538999999999996          
         C72       1.0000    0.56650   0.00630   0.65230   Biso      1.000     C          0.08064099999999999           
         Cu1       1.0000    0.17965   0.05506   0.37757   Biso      1.000     Cu          0.150576  
         Cu2       1.0000    0.75521   0.82692   0.50169   Biso      1.000     Cu          0.144766  
         Cu3       1.0000    0.03805   0.18230   0.40021   Biso      1.000     Cu          0.139955  
         Cu4       1.0000    0.96195   0.81770   0.59979   Biso      1.000     Cu          0.139957  
         Cu5       1.0000    0.24479   0.17308   0.49831   Biso      1.000     Cu          0.144765  
         Cu6       1.0000    0.98597   0.05755   0.45956   Biso      1.000     Cu          0.11519800000000001           
         Cu7       1.0000    0.01403   0.94245   0.54044   Biso      1.000     Cu          0.1152    
         Cu8       1.0000    0.82035   0.94494   0.62243   Biso      1.000     Cu          0.150575  
         H1        1.0000    0.14000   0.45740   0.71160   Biso      1.000     H          0.113193  
         H2        1.0000    0.14540   0.50220   0.82350   Biso      1.000     H          0.11729200000000001           
         H3        1.0000    0.93240   0.37830   0.63780   Biso      1.000     H          0.115033  
         H4        1.0000    0.68550   0.36140   0.17570   Biso      1.000     H          0.126353  
         H5        1.0000    0.30890   0.44280   0.15660   Biso      1.000     H          0.11342200000000001           
         H6        1.0000    0.73040   0.39330   0.78960   Biso      1.000     H          0.127271  
         H7        1.0000    0.28280   0.41790   0.25810   Biso      1.000     H          0.11261900000000001           
         H8        1.0000    0.26960   0.60670   0.21040   Biso      1.000     H          0.127271  
         H9        1.0000    0.46720   0.60130   0.30550   Biso      1.000     H          0.125275  
         H10       1.0000    0.66830   0.67800   0.38170   Biso      1.000     H          0.084303  
         H11       1.0000    0.56500   0.25240   0.32690   Biso      1.000     H          0.12197899999999999           
         H12       1.0000    0.27060   0.79080   0.23130   Biso      1.000     H          0.125564  
         H13       1.0000    0.23920   0.75800   0.39660   Biso      1.000     H          0.1216    
         H14       1.0000    0.61990   0.95440   0.34210   Biso      1.000     H          0.11695699999999999           
         H15       1.0000    0.44600   0.83150   0.46700   Biso      1.000     H          0.088108  
         H16       1.0000    0.03560   0.31110   0.32210   Biso      1.000     H          0.089936  
         H17       1.0000    0.43080   0.73850   0.16930   Biso      1.000     H          0.12335   
         H18       1.0000    0.81750   0.66940   0.19450   Biso      1.000     H          0.112298  
         H19       1.0000    0.88500   0.76660   0.30000   Biso      1.000     H          0.107233  
         H20       1.0000    0.87250   0.37450   0.26780   Biso      1.000     H          0.119825  
         H21       1.0000    0.72870   0.85010   0.33780   Biso      1.000     H          0.110214  
         H22       1.0000    0.73690   0.19260   0.38070   Biso      1.000     H          0.086659  
         H23       1.0000    0.13310   0.88360   0.27410   Biso      1.000     H          0.092724  
         H24       1.0000    0.47530   0.04660   0.37540   Biso      1.000     H          0.091895  
         H25       1.0000    0.18250   0.33060   0.80550   Biso      1.000     H          0.112298  
         H26       1.0000    0.53280   0.39870   0.69450   Biso      1.000     H          0.125275  
         H27       1.0000    0.06760   0.62170   0.36220   Biso      1.000     H          0.115034  
         H28       1.0000    0.33170   0.32200   0.61830   Biso      1.000     H          0.084303  
         H29       1.0000    0.69110   0.55720   0.84340   Biso      1.000     H          0.11342200000000001           
         H30       1.0000    0.86690   0.11640   0.72590   Biso      1.000     H          0.092724  
         H31       1.0000    0.31450   0.63860   0.82430   Biso      1.000     H          0.126353  
         H32       1.0000    0.72940   0.20920   0.76870   Biso      1.000     H          0.125564  
         H33       1.0000    0.96440   0.68890   0.67790   Biso      1.000     H          0.089936  
         H34       1.0000    0.12750   0.62550   0.73220   Biso      1.000     H          0.119825  
         H35       1.0000    0.38010   0.04560   0.65790   Biso      1.000     H          0.11695799999999999           
         H36       1.0000    0.43500   0.74760   0.67310   Biso      1.000     H          0.12197899999999999           
         H37       1.0000    0.26310   0.80740   0.61930   Biso      1.000     H          0.086659  
         H38       1.0000    0.52470   0.95340   0.62460   Biso      1.000     H          0.091894  
         H39       1.0000    0.27130   0.14990   0.66220   Biso      1.000     H          0.110214  
         H40       1.0000    0.11500   0.23340   0.70000   Biso      1.000     H          0.107232  
         H41       1.0000    0.56920   0.26150   0.83070   Biso      1.000     H          0.12335   
         H42       1.0000    0.54340   0.63420   0.68230   Biso      1.000     H          0.11539400000000001           
         H43       1.0000    0.45660   0.36580   0.31770   Biso      1.000     H          0.11539400000000001           
         H44       1.0000    0.71720   0.58210   0.74190   Biso      1.000     H          0.11261900000000001           
         H45       1.0000    0.85460   0.49780   0.17650   Biso      1.000     H          0.11729200000000001           
         H46       1.0000    0.55400   0.16850   0.53300   Biso      1.000     H          0.088108  
         H47       1.0000    0.86000   0.54260   0.28840   Biso      1.000     H          0.113193  
         H48       1.0000    0.76080   0.24200   0.60340   Biso      1.000     H          0.121601  
         I1        1.0000    0.69498   0.78942   0.61293   Biso      1.000     I          -0.326947           
         I2        1.0000    0.08918   0.97768   0.67472   Biso      1.000     I          -0.278539           
         I3        1.0000    0.99071   0.77992   0.47107   Biso      1.000     I          -0.30859699999999995          
         I4        1.0000    0.23840   0.01080   0.50004   Biso      1.000     I          -0.215678           
         I5        1.0000    0.30502   0.21058   0.38707   Biso      1.000     I          -0.326946           
         I6        1.0000    0.91082   0.02232   0.32528   Biso      1.000     I          -0.278539           
         I7        1.0000    0.00929   0.22008   0.52893   Biso      1.000     I          -0.308595           
         I8        1.0000    0.76160   0.98920   0.49996   Biso      1.000     I          -0.215679           
         N1        1.0000    0.28940   0.97340   0.33030   Biso      1.000     N          -0.163366           
         N2        1.0000    0.57740   0.76080   0.43260   Biso      1.000     N          -0.15658699999999998          
         N3        1.0000    0.71060   0.02660   0.66970   Biso      1.000     N          -0.163367           
         N4        1.0000    0.09920   0.75310   0.64270   Biso      1.000     N          -0.148616           
         N5        1.0000    0.90080   0.24690   0.35730   Biso      1.000     N          -0.148616           
         N6        1.0000    0.42260   0.23920   0.56740   Biso      1.000     N          -0.156586           
         O1        1.0000    0.66910   0.59010   0.08700   Biso      1.000     O          -0.712695           
         O2        1.0000    0.64080   0.41650   0.07660   Biso      1.000     O          -0.6509149999999999           
         O3        1.0000    0.16960   0.54040   0.08880   Biso      1.000     O          -0.690808           
         O4        1.0000    0.93930   0.48300   0.06930   Biso      1.000     O          -0.728195           
         O5        1.0000    0.44840   0.62210   0.07180   Biso      1.000     O          -0.6758609999999999           
         O6        1.0000    0.55160   0.37790   0.92820   Biso      1.000     O          -0.67586  
         O7        1.0000    0.33090   0.40990   0.91300   Biso      1.000     O          -0.7126939999999999           
         O8        1.0000    0.06070   0.51700   0.93070   Biso      1.000     O          -0.728194           
         O9        1.0000    0.35920   0.58350   0.92340   Biso      1.000     O          -0.6509149999999999           
         O10       1.0000    0.83040   0.45960   0.91120   Biso      1.000     O          -0.690807           
         O11       1.0000    0.57810   0.55220   0.94060   Biso      1.000     O          -0.736427           
         O12       1.0000    0.42190   0.44780   0.05940   Biso      1.000     O          -0.736427           
         Tb1       1.0000    0.72316   0.48770   0.00290   Biso      1.000     Tb          2.1427080000000003  
         Tb2       1.0000    0.27684   0.51230   0.99710   Biso      1.000     Tb          2.1427080000000003 