
##########################################################################
#               Crystallographic Information Format file
#               Produced by PyCifRW module
#
#  This is a CIF file.  CIF has been adopted by the International
#  Union of Crystallography as the standard for data archiving and
#  transmission.
#
#  For information on this file format, follow the CIF links at
#  http://www.iucr.org
##########################################################################

data_image0

_cell_length_a                          9.6689
_cell_length_b                          16.716
_cell_length_c                          21.277
_cell_angle_alpha                       104.23
_cell_angle_beta                        100.42
_cell_angle_gamma                       96.86
_symmetry_space_group_name_H-M          'P 1'
_symmetry_int_tables_number             1
loop_
  _symmetry_equiv_pos_as_xyz
         'x, y, z' 
loop_
  _atom_site_label
  _atom_site_occupancy
  _atom_site_fract_x
  _atom_site_fract_y
  _atom_site_fract_z
  _atom_site_thermal_displace_type
  _atom_site_B_iso_or_equiv
  _atom_site_type_symbol
  _atom_site_charge
         C1        1.0000    0.47790   0.57440   0.90670   Biso      1.000     C          0.600588  
         C2        1.0000    0.05880   0.46940   0.79160   Biso      1.000     C          -0.098319           
         C3        1.0000    0.93760   0.44890   0.81540   Biso      1.000     C          -0.008392           
         C4        1.0000    0.81250   0.40340   0.77190   Biso      1.000     C          -0.171238           
         C5        1.0000    0.80640   0.37790   0.70290   Biso      1.000     C          0.048556  
         C6        1.0000    0.42090   0.30530   0.61480   Biso      1.000     C          0.083848  
         C7        1.0000    0.54250   0.35190   0.66020   Biso      1.000     C          -0.182884           
         C8        1.0000    0.67370   0.32850   0.65470   Biso      1.000     C          0.136194  
         C9        1.0000    0.67240   0.25840   0.60580   Biso      1.000     C          -0.195219           
         C10       1.0000    0.54740   0.21630   0.56290   Biso      1.000     C          0.084371  
         C11       1.0000    0.53230   0.62410   0.72300   Biso      1.000     C          -0.151022           
         C12       1.0000    0.05480   0.44340   0.72500   Biso      1.000     C          -0.08985900000000001          
         C13       1.0000    0.63730   0.59210   0.75930   Biso      1.000     C          -0.092386           
         C14       1.0000    0.49630   0.59210   0.84080   Biso      1.000     C          -0.009567           
         C15       1.0000    0.39490   0.62600   0.80650   Biso      1.000     C          -0.164192           
         C16       1.0000    0.41210   0.64340   0.74550   Biso      1.000     C          0.047609  
         C17       1.0000    0.06550   0.70140   0.67490   Biso      1.000     C          0.097058  
         C18       1.0000    0.15820   0.66190   0.70840   Biso      1.000     C          -0.188917           
         C19       1.0000    0.30110   0.68010   0.71060   Biso      1.000     C          0.138822  
         C20       1.0000    0.34100   0.73560   0.67450   Biso      1.000     C          -0.189448           
         C21       1.0000    0.23880   0.77130   0.64350   Biso      1.000     C          0.070395  
         C22       1.0000    0.41960   0.36750   0.89490   Biso      1.000     C          0.599073  
         C23       1.0000    0.29740   0.19070   0.70340   Biso      1.000     C          -0.143743           
         C24       1.0000    0.62180   0.57710   0.81760   Biso      1.000     C          -0.097727           
         C25       1.0000    0.20390   0.24060   0.72630   Biso      1.000     C          -0.093663           
         C26       1.0000    0.92910   0.39770   0.68110   Biso      1.000     C          -0.15696500000000002          
         C27       1.0000    0.23560   0.89650   0.28910   Biso      1.000     C          0.086013  
         C28       1.0000    0.46770   0.37590   0.27700   Biso      1.000     C          -0.15102000000000002          
         C29       1.0000    0.36270   0.40790   0.24070   Biso      1.000     C          -0.092386           
         C30       1.0000    0.37820   0.42290   0.18240   Biso      1.000     C          -0.097724           
         C31       1.0000    0.50370   0.40790   0.15920   Biso      1.000     C          -0.009568           
         C32       1.0000    0.60510   0.37400   0.19350   Biso      1.000     C          -0.164189           
         C33       1.0000    0.58790   0.35660   0.25450   Biso      1.000     C          0.047609  
         C34       1.0000    0.93450   0.29860   0.32510   Biso      1.000     C          0.097059  
         C35       1.0000    0.84180   0.33810   0.29160   Biso      1.000     C          -0.188916           
         C36       1.0000    0.69890   0.31990   0.28940   Biso      1.000     C          0.138822  
         C37       1.0000    0.65900   0.26440   0.32550   Biso      1.000     C          -0.189446           
         C38       1.0000    0.94210   0.47450   0.88940   Biso      1.000     C          0.591955  
         C39       1.0000    0.76120   0.22870   0.35650   Biso      1.000     C          0.070397  
         C40       1.0000    0.70260   0.80930   0.29660   Biso      1.000     C          -0.143743           
         C41       1.0000    0.79610   0.75940   0.27370   Biso      1.000     C          -0.093662           
         C42       1.0000    0.75640   0.70370   0.21240   Biso      1.000     C          -0.09818099999999999          
         C43       1.0000    0.62180   0.69520   0.17270   Biso      1.000     C          -0.010115           
         C44       1.0000    0.52440   0.74360   0.19750   Biso      1.000     C          -0.152062           
         C45       1.0000    0.56520   0.80240   0.25770   Biso      1.000     C          0.048556999999999996          
         C46       1.0000    0.43530   0.99200   0.34990   Biso      1.000     C          0.072525  
         C47       1.0000    0.52370   0.94010   0.32870   Biso      1.000     C          -0.1862   
         C48       1.0000    0.46860   0.86040   0.28290   Biso      1.000     C          0.130409  
         C49       1.0000    0.31900   0.84040   0.26310   Biso      1.000     C          -0.184605           
         C50       1.0000    0.58040   0.63250   0.10510   Biso      1.000     C          0.599057  
         C51       1.0000    0.24360   0.29630   0.78760   Biso      1.000     C          -0.098182           
         C52       1.0000    0.52210   0.42560   0.09330   Biso      1.000     C          0.600584  
         C53       1.0000    0.94120   0.53060   0.20840   Biso      1.000     C          -0.098315           
         C54       1.0000    0.07090   0.60230   0.31890   Biso      1.000     C          -0.156968           
         C55       1.0000    0.94520   0.55660   0.27500   Biso      1.000     C          -0.089863           
         C56       1.0000    0.05790   0.52550   0.11060   Biso      1.000     C          0.5919409999999999  
         C57       1.0000    0.37820   0.30480   0.82730   Biso      1.000     C          -0.010112999999999999         
         C58       1.0000    0.76440   0.10350   0.71090   Biso      1.000     C          0.086016  
         C59       1.0000    0.06240   0.55110   0.18460   Biso      1.000     C          -0.00839  
         C60       1.0000    0.18750   0.59660   0.22810   Biso      1.000     C          -0.171237           
         C61       1.0000    0.68100   0.15960   0.73690   Biso      1.000     C          -0.184602           
         C62       1.0000    0.19360   0.62210   0.29710   Biso      1.000     C          0.048556  
         C63       1.0000    0.57910   0.69470   0.38520   Biso      1.000     C          0.083851  
         C64       1.0000    0.45750   0.64810   0.33980   Biso      1.000     C          -0.182883           
         C65       1.0000    0.53140   0.13960   0.71710   Biso      1.000     C          0.130414  
         C66       1.0000    0.32630   0.67150   0.34530   Biso      1.000     C          0.136196  
         C67       1.0000    0.32760   0.74160   0.39420   Biso      1.000     C          -0.195215           
         C68       1.0000    0.56470   0.00800   0.65010   Biso      1.000     C          0.072528  
         C69       1.0000    0.45260   0.78370   0.43710   Biso      1.000     C          0.084373  
         C70       1.0000    0.43480   0.19760   0.74230   Biso      1.000     C          0.048551  
         C71       1.0000    0.47560   0.25640   0.80250   Biso      1.000     C          -0.152055           
         C72       1.0000    0.47630   0.05990   0.67130   Biso      1.000     C          -0.186198           
         Cu1       1.0000    0.24459   0.17259   0.49723   Biso      1.000     Cu          0.15894   
         Cu2       1.0000    0.96271   0.81831   0.59992   Biso      1.000     Cu          0.165524  
         Cu3       1.0000    0.82078   0.94673   0.62266   Biso      1.000     Cu          0.16313699999999998           
         Cu4       1.0000    0.75541   0.82741   0.50277   Biso      1.000     Cu          0.15895399999999998           
         Cu5       1.0000    0.01404   0.94278   0.54053   Biso      1.000     Cu          0.103154  
         Cu6       1.0000    0.03729   0.18169   0.40008   Biso      1.000     Cu          0.165546  
         Cu7       1.0000    0.17922   0.05327   0.37734   Biso      1.000     Cu          0.163103  
         Cu8       1.0000    0.98596   0.05722   0.45947   Biso      1.000     Cu          0.10315099999999999           
         Eu1       1.0000    0.27613   0.51536   0.99816   Biso      1.000     Eu          1.401508  
         Eu2       1.0000    0.72387   0.48464   0.00184   Biso      1.000     Eu          1.401507  
         H1        1.0000    0.37810   0.04330   0.65580   Biso      1.000     H          0.11617000000000001           
         H2        1.0000    0.92790   0.38010   0.63600   Biso      1.000     H          0.10478599999999999           
         H3        1.0000    0.46370   0.60190   0.30630   Biso      1.000     H          0.136665  
         H4        1.0000    0.12430   0.62330   0.72930   Biso      1.000     H          0.132629  
         H5        1.0000    0.13680   0.88140   0.27640   Biso      1.000     H          0.098944  
         H6        1.0000    0.27600   0.78950   0.23260   Biso      1.000     H          0.138942  
         H7        1.0000    0.24270   0.76100   0.39850   Biso      1.000     H          0.12153699999999999           
         H8        1.0000    0.43580   0.74790   0.67180   Biso      1.000     H          0.126447  
         H9        1.0000    0.62190   0.95670   0.34420   Biso      1.000     H          0.116167  
         H10       1.0000    0.44860   0.83110   0.47000   Biso      1.000     H          0.08035700000000001           
         H11       1.0000    0.47530   0.04470   0.37850   Biso      1.000     H          0.085234  
         H12       1.0000    0.26840   0.80990   0.62160   Biso      1.000     H          0.08136   
         H13       1.0000    0.43160   0.73560   0.17280   Biso      1.000     H          0.125486  
         H14       1.0000    0.82060   0.67080   0.19680   Biso      1.000     H          0.114455  
         H15       1.0000    0.88620   0.76370   0.30000   Biso      1.000     H          0.10069299999999999           
         H16       1.0000    0.73040   0.84800   0.33820   Biso      1.000     H          0.096764  
         H17       1.0000    0.73160   0.19010   0.37840   Biso      1.000     H          0.08136399999999999           
         H18       1.0000    0.56420   0.25210   0.32820   Biso      1.000     H          0.12645   
         H19       1.0000    0.52470   0.95530   0.62150   Biso      1.000     H          0.085233  
         H20       1.0000    0.87570   0.37670   0.27070   Biso      1.000     H          0.132631  
         H21       1.0000    0.26960   0.15200   0.66180   Biso      1.000     H          0.096765  
         H22       1.0000    0.03030   0.31110   0.32420   Biso      1.000     H          0.083944  
         H23       1.0000    0.11380   0.23630   0.70000   Biso      1.000     H          0.10069299999999999           
         H24       1.0000    0.56840   0.26440   0.82720   Biso      1.000     H          0.12548399999999998           
         H25       1.0000    0.68530   0.36240   0.17690   Biso      1.000     H          0.126118  
         H26       1.0000    0.30720   0.44290   0.15790   Biso      1.000     H          0.12016900000000001           
         H27       1.0000    0.28170   0.41900   0.25670   Biso      1.000     H          0.10953   
         H28       1.0000    0.96970   0.68890   0.67580   Biso      1.000     H          0.083941  
         H29       1.0000    0.13560   0.45620   0.70900   Biso      1.000     H          0.109805  
         H30       1.0000    0.17940   0.32920   0.80320   Biso      1.000     H          0.114455  
         H31       1.0000    0.14190   0.50060   0.82100   Biso      1.000     H          0.12304200000000001           
         H32       1.0000    0.66640   0.67840   0.38110   Biso      1.000     H          0.089352  
         H33       1.0000    0.07210   0.61990   0.36400   Biso      1.000     H          0.10478699999999999           
         H34       1.0000    0.55140   0.16890   0.53000   Biso      1.000     H          0.080355  
         H35       1.0000    0.86440   0.54380   0.29100   Biso      1.000     H          0.109806  
         H36       1.0000    0.75730   0.23900   0.60150   Biso      1.000     H          0.12153399999999999           
         H37       1.0000    0.45580   0.36740   0.31740   Biso      1.000     H          0.101797  
         H38       1.0000    0.85810   0.49940   0.17900   Biso      1.000     H          0.12304200000000001           
         H39       1.0000    0.53630   0.39810   0.69370   Biso      1.000     H          0.13666199999999998           
         H40       1.0000    0.71830   0.58100   0.74330   Biso      1.000     H          0.109529  
         H41       1.0000    0.33360   0.32160   0.61890   Biso      1.000     H          0.089349  
         H42       1.0000    0.86320   0.11860   0.72360   Biso      1.000     H          0.098945  
         H43       1.0000    0.26750   0.61030   0.21180   Biso      1.000     H          0.125745  
         H44       1.0000    0.73250   0.38970   0.78820   Biso      1.000     H          0.125743  
         H45       1.0000    0.31470   0.63760   0.82310   Biso      1.000     H          0.126119  
         H46       1.0000    0.72400   0.21050   0.76740   Biso      1.000     H          0.138944  
         H47       1.0000    0.69280   0.55710   0.84210   Biso      1.000     H          0.12017   
         H48       1.0000    0.54420   0.63260   0.68260   Biso      1.000     H          0.101796  
         I1        1.0000    0.76300   0.99030   0.50023   Biso      1.000     I          -0.163154           
         I2        1.0000    0.30228   0.20962   0.38593   Biso      1.000     I          -0.24835700000000002          
         I3        1.0000    0.98948   0.77964   0.47165   Biso      1.000     I          -0.226802           
         I4        1.0000    0.23700   0.00970   0.49977   Biso      1.000     I          -0.163171           
         I5        1.0000    0.08940   0.97873   0.67434   Biso      1.000     I          -0.181146           
         I6        1.0000    0.69772   0.79038   0.61407   Biso      1.000     I          -0.248333           
         I7        1.0000    0.91060   0.02127   0.32566   Biso      1.000     I          -0.181142           
         I8        1.0000    0.01052   0.22036   0.52835   Biso      1.000     I          -0.22679899999999997          
         N1        1.0000    0.42220   0.23830   0.56530   Biso      1.000     N          -0.16734200000000002          
         N2        1.0000    0.09810   0.75470   0.64220   Biso      1.000     N          -0.163708           
         N3        1.0000    0.70790   0.02820   0.66810   Biso      1.000     N          -0.172717           
         N4        1.0000    0.57780   0.76170   0.43470   Biso      1.000     N          -0.167344           
         N5        1.0000    0.90190   0.24530   0.35780   Biso      1.000     N          -0.163707           
         N6        1.0000    0.29210   0.97180   0.33190   Biso      1.000     N          -0.172705           
         O1        1.0000    0.57670   0.55010   0.93880   Biso      1.000     O          -0.585032           
         O2        1.0000    0.54520   0.37540   0.92830   Biso      1.000     O          -0.570086           
         O3        1.0000    0.32640   0.40800   0.91280   Biso      1.000     O          -0.5809529999999999           
         O4        1.0000    0.06000   0.51470   0.92800   Biso      1.000     O          -0.591913           
         O5        1.0000    0.45480   0.62460   0.07170   Biso      1.000     O          -0.570058           
         O6        1.0000    0.67360   0.59200   0.08720   Biso      1.000     O          -0.5809340000000001           
         O7        1.0000    0.64080   0.41700   0.07830   Biso      1.000     O          -0.570463           
         O8        1.0000    0.17040   0.54440   0.09180   Biso      1.000     O          -0.59186  
         O9        1.0000    0.42330   0.44990   0.06120   Biso      1.000     O          -0.585029           
         O10       1.0000    0.94000   0.48530   0.07200   Biso      1.000     O          -0.591928           
         O11       1.0000    0.82960   0.45560   0.90820   Biso      1.000     O          -0.591849           
         O12       1.0000    0.35920   0.58300   0.92170   Biso      1.000     O          -0.570477 