
##########################################################################
#               Crystallographic Information Format file
#               Produced by PyCifRW module
#
#  This is a CIF file.  CIF has been adopted by the International
#  Union of Crystallography as the standard for data archiving and
#  transmission.
#
#  For information on this file format, follow the CIF links at
#  http://www.iucr.org
##########################################################################

data_image0

_cell_length_a                          15.0535
_cell_length_b                          15.0535
_cell_length_c                          11.8737
_cell_angle_alpha                       90
_cell_angle_beta                        90
_cell_angle_gamma                       90
_symmetry_space_group_name_H-M          'P 1'
_symmetry_int_tables_number             1
loop_
  _symmetry_equiv_pos_as_xyz
         'x, y, z' 
loop_
  _atom_site_label
  _atom_site_occupancy
  _atom_site_fract_x
  _atom_site_fract_y
  _atom_site_fract_z
  _atom_site_thermal_displace_type
  _atom_site_B_iso_or_equiv
  _atom_site_type_symbol
  _atom_site_charge
         C1        1.0000    0.50000   0.00000   0.18640   Biso      1.000     C          0.080044  
         C2        1.0000    0.50000   0.00000   0.55020   Biso      1.000     C          -0.109602           
         C3        1.0000    0.86190   0.90770   0.79840   Biso      1.000     C          0.61082   
         C4        1.0000    0.93030   0.95890   0.73970   Biso      1.000     C          -0.017154           
         C5        1.0000    0.93010   0.96200   0.62090   Biso      1.000     C          -0.150031           
         C6        1.0000    0.00000   0.50000   0.81360   Biso      1.000     C          0.080044  
         C7        1.0000    0.00000   0.50000   0.05020   Biso      1.000     C          -0.109602           
         C8        1.0000    0.56970   0.95890   0.01030   Biso      1.000     C          -0.017154           
         C9        1.0000    0.43030   0.45890   0.23970   Biso      1.000     C          -0.017154           
         C10       1.0000    0.43010   0.46200   0.12090   Biso      1.000     C          -0.150031           
         C11       1.0000    0.40770   0.36190   0.70160   Biso      1.000     C          0.61082   
         C12       1.0000    0.45890   0.43030   0.76030   Biso      1.000     C          -0.017154           
         C13       1.0000    0.46200   0.43010   0.87910   Biso      1.000     C          -0.150031           
         C14       1.0000    0.90770   0.86190   0.20160   Biso      1.000     C          0.61082   
         C15       1.0000    0.95890   0.93030   0.26030   Biso      1.000     C          -0.017154           
         C16       1.0000    0.96200   0.93010   0.37910   Biso      1.000     C          -0.150031           
         C17       1.0000    0.09230   0.13810   0.20160   Biso      1.000     C          0.61082   
         C18       1.0000    0.04110   0.06970   0.26030   Biso      1.000     C          -0.017154           
         C19       1.0000    0.63810   0.90770   0.95160   Biso      1.000     C          0.61082   
         C20       1.0000    0.13810   0.40770   0.45160   Biso      1.000     C          0.61082   
         C21       1.0000    0.06970   0.45890   0.51030   Biso      1.000     C          -0.017154           
         C22       1.0000    0.43010   0.03800   0.12910   Biso      1.000     C          -0.150032           
         C23       1.0000    0.43030   0.04110   0.01030   Biso      1.000     C          -0.017154           
         C24       1.0000    0.36190   0.09230   0.95160   Biso      1.000     C          0.61082   
         C25       1.0000    0.50000   0.00000   0.31360   Biso      1.000     C          0.080044  
         C26       1.0000    0.06990   0.46200   0.62910   Biso      1.000     C          -0.150031           
         C27       1.0000    0.93030   0.54110   0.51030   Biso      1.000     C          -0.017155           
         C28       1.0000    0.86190   0.59230   0.45160   Biso      1.000     C          0.61082   
         C29       1.0000    0.53800   0.56990   0.87910   Biso      1.000     C          -0.150031           
         C30       1.0000    0.54110   0.56970   0.76030   Biso      1.000     C          -0.017154           
         C31       1.0000    0.59230   0.63810   0.70160   Biso      1.000     C          0.61082   
         C32       1.0000    0.03800   0.06990   0.37910   Biso      1.000     C          -0.150031           
         C33       1.0000    0.93010   0.53800   0.62910   Biso      1.000     C          -0.150031           
         C34       1.0000    0.06990   0.03800   0.62090   Biso      1.000     C          -0.150031           
         C35       1.0000    0.36190   0.40770   0.29840   Biso      1.000     C          0.61082   
         C36       1.0000    0.13810   0.09230   0.79840   Biso      1.000     C          0.61082   
         C37       1.0000    0.06970   0.04110   0.73970   Biso      1.000     C          -0.017154           
         C38       1.0000    0.46200   0.06990   0.37090   Biso      1.000     C          -0.150031           
         C39       1.0000    0.45890   0.06970   0.48970   Biso      1.000     C          -0.017154           
         C40       1.0000    0.40770   0.13810   0.54840   Biso      1.000     C          0.61082   
         C41       1.0000    0.00000   0.00000   0.19980   Biso      1.000     C          -0.109602           
         C42       1.0000    0.00000   0.00000   0.43640   Biso      1.000     C          0.080044  
         C43       1.0000    0.53800   0.93010   0.37090   Biso      1.000     C          -0.150031           
         C44       1.0000    0.54110   0.93030   0.48970   Biso      1.000     C          -0.017154           
         C45       1.0000    0.59230   0.86190   0.54840   Biso      1.000     C          0.61082   
         C46       1.0000    0.00000   0.50000   0.44980   Biso      1.000     C          -0.109602           
         C47       1.0000    0.00000   0.50000   0.68640   Biso      1.000     C          0.080044  
         C48       1.0000    0.03800   0.43010   0.87090   Biso      1.000     C          -0.150031           
         C49       1.0000    0.04110   0.43030   0.98970   Biso      1.000     C          -0.017154           
         C50       1.0000    0.09230   0.36190   0.04840   Biso      1.000     C          0.61082   
         C51       1.0000    0.50000   0.00000   0.94980   Biso      1.000     C          -0.109602           
         C52       1.0000    0.50000   0.50000   0.93640   Biso      1.000     C          0.080044  
         C53       1.0000    0.50000   0.50000   0.69980   Biso      1.000     C          -0.109602           
         C54       1.0000    0.56990   0.96200   0.12910   Biso      1.000     C          -0.150032           
         C55       1.0000    0.50000   0.50000   0.30020   Biso      1.000     C          -0.109602           
         C56       1.0000    0.90770   0.63810   0.04840   Biso      1.000     C          0.61082   
         C57       1.0000    0.50000   0.50000   0.06360   Biso      1.000     C          0.080044  
         C58       1.0000    0.95890   0.56970   0.98970   Biso      1.000     C          -0.017154           
         C59       1.0000    0.56990   0.53800   0.12090   Biso      1.000     C          -0.150031           
         C60       1.0000    0.56970   0.54110   0.23970   Biso      1.000     C          -0.017154           
         C61       1.0000    0.96200   0.56990   0.87090   Biso      1.000     C          -0.150032           
         C62       1.0000    0.63810   0.59230   0.29840   Biso      1.000     C          0.61082   
         C63       1.0000    0.00000   0.00000   0.80020   Biso      1.000     C          -0.109602           
         C64       1.0000    0.00000   0.00000   0.56360   Biso      1.000     C          0.080044  
         Ga1       1.0000    0.80527   0.69473   0.25000   Biso      1.000     Ga          1.490982  
         Ga2       1.0000    0.19473   0.19473   0.00000   Biso      1.000     Ga          1.490983  
         Ga3       1.0000    0.69473   0.69473   0.50000   Biso      1.000     Ga          1.490982  
         Ga4       1.0000    0.30527   0.30527   0.50000   Biso      1.000     Ga          1.490983  
         Ga5       1.0000    0.80527   0.80527   0.00000   Biso      1.000     Ga          1.490984  
         Ga6       1.0000    0.30527   0.19473   0.75000   Biso      1.000     Ga          1.490983  
         Ga7       1.0000    0.19473   0.30527   0.25000   Biso      1.000     Ga          1.490981  
         Ga8       1.0000    0.69473   0.80527   0.75000   Biso      1.000     Ga          1.490983  
         H1        1.0000    0.00000   0.00000   0.11980   Biso      1.000     H          0.14106300000000002           
         H2        1.0000    0.50000   0.00000   0.63020   Biso      1.000     H          0.14106300000000002           
         H3        1.0000    0.61860   0.93770   0.16970   Biso      1.000     H          0.122205  
         H4        1.0000    0.19210   0.25000   0.62500   Biso      1.000     H          0.44584700000000005           
         H5        1.0000    0.50000   0.50000   0.38020   Biso      1.000     H          0.14106300000000002           
         H6        1.0000    0.50000   0.50000   0.61980   Biso      1.000     H          0.14106300000000002           
         H7        1.0000    0.80790   0.75000   0.62500   Biso      1.000     H          0.44584700000000005           
         H8        1.0000    0.00000   0.50000   0.36980   Biso      1.000     H          0.14106300000000002           
         H9        1.0000    0.11860   0.43770   0.66970   Biso      1.000     H          0.122205  
         H10       1.0000    0.25000   0.30790   0.87500   Biso      1.000     H          0.44584700000000005           
         H11       1.0000    0.00000   0.50000   0.13020   Biso      1.000     H          0.14106300000000002           
         H12       1.0000    0.75000   0.69210   0.87500   Biso      1.000     H          0.44584700000000005           
         H13       1.0000    0.25000   0.19210   0.37500   Biso      1.000     H          0.44584700000000005           
         H14       1.0000    0.75000   0.80790   0.37500   Biso      1.000     H          0.44584700000000005           
         H15       1.0000    0.00000   0.00000   0.88020   Biso      1.000     H          0.14106300000000002           
         H16       1.0000    0.30790   0.25000   0.12500   Biso      1.000     H          0.44584700000000005           
         H17       1.0000    0.69210   0.75000   0.12500   Biso      1.000     H          0.44584700000000005           
         H18       1.0000    0.56230   0.61860   0.91970   Biso      1.000     H          0.122205  
         H19       1.0000    0.38140   0.43770   0.08030   Biso      1.000     H          0.122205  
         H20       1.0000    0.93770   0.61860   0.83030   Biso      1.000     H          0.122205  
         H21       1.0000    0.11860   0.06230   0.58030   Biso      1.000     H          0.122205  
         H22       1.0000    0.06230   0.11860   0.41970   Biso      1.000     H          0.122205  
         H23       1.0000    0.43770   0.11860   0.33030   Biso      1.000     H          0.122205  
         H24       1.0000    0.43770   0.38140   0.91970   Biso      1.000     H          0.122205  
         H25       1.0000    0.93770   0.88140   0.41970   Biso      1.000     H          0.122205  
         H26       1.0000    0.50000   0.00000   0.86980   Biso      1.000     H          0.14106300000000002           
         H27       1.0000    0.88140   0.56230   0.66970   Biso      1.000     H          0.122205  
         H28       1.0000    0.88140   0.93770   0.58030   Biso      1.000     H          0.122205  
         H29       1.0000    0.38140   0.06230   0.16970   Biso      1.000     H          0.122205  
         H30       1.0000    0.06230   0.38140   0.83030   Biso      1.000     H          0.122205  
         H31       1.0000    0.56230   0.88140   0.33030   Biso      1.000     H          0.122205  
         H32       1.0000    0.61860   0.56230   0.08030   Biso      1.000     H          0.122205  
         O1        1.0000    0.78580   0.90040   0.74880   Biso      1.000     O          -0.588205           
         O2        1.0000    0.88070   0.87490   0.89250   Biso      1.000     O          -0.525979           
         O3        1.0000    0.11930   0.12510   0.89250   Biso      1.000     O          -0.525979           
         O4        1.0000    0.28580   0.40040   0.24880   Biso      1.000     O          -0.588205           
         O5        1.0000    0.21420   0.09960   0.74880   Biso      1.000     O          -0.588205           
         O6        1.0000    0.21420   0.40040   0.50120   Biso      1.000     O          -0.588205           
         O7        1.0000    0.71420   0.59960   0.24880   Biso      1.000     O          -0.588205           
         O8        1.0000    0.38070   0.37490   0.39250   Biso      1.000     O          -0.525979           
         O9        1.0000    0.90040   0.71420   0.99880   Biso      1.000     O          -0.588205           
         O10       1.0000    0.37490   0.11930   0.64250   Biso      1.000     O          -0.525979           
         O11       1.0000    0.40040   0.21420   0.49880   Biso      1.000     O          -0.588205           
         O12       1.0000    0.62510   0.88070   0.64250   Biso      1.000     O          -0.525979           
         O13       1.0000    0.59960   0.78580   0.49880   Biso      1.000     O          -0.588205           
         O14       1.0000    0.12510   0.38070   0.14250   Biso      1.000     O          -0.525979           
         O15       1.0000    0.61930   0.62510   0.39250   Biso      1.000     O          -0.525979           
         O16       1.0000    0.87490   0.61930   0.14250   Biso      1.000     O          -0.525979           
         O17       1.0000    0.75000   0.74770   0.87500   Biso      1.000     O          -0.9516459999999999           
         O18       1.0000    0.40040   0.28580   0.75120   Biso      1.000     O          -0.588205           
         O19       1.0000    0.11930   0.37490   0.35750   Biso      1.000     O          -0.525979           
         O20       1.0000    0.71420   0.90040   0.00120   Biso      1.000     O          -0.588205           
         O21       1.0000    0.38070   0.12510   0.85750   Biso      1.000     O          -0.525979           
         O22       1.0000    0.28580   0.09960   0.00120   Biso      1.000     O          -0.588205           
         O23       1.0000    0.88070   0.62510   0.35750   Biso      1.000     O          -0.525979           
         O24       1.0000    0.78580   0.59960   0.50120   Biso      1.000     O          -0.588205           
         O25       1.0000    0.62510   0.61930   0.60750   Biso      1.000     O          -0.525979           
         O26       1.0000    0.59960   0.71420   0.75120   Biso      1.000     O          -0.588205           
         O27       1.0000    0.12510   0.11930   0.10750   Biso      1.000     O          -0.525979           
         O28       1.0000    0.25000   0.24770   0.37500   Biso      1.000     O          -0.9516459999999999           
         O29       1.0000    0.25230   0.25000   0.12500   Biso      1.000     O          -0.9516450000000001           
         O30       1.0000    0.75230   0.75000   0.62500   Biso      1.000     O          -0.9516450000000001           
         O31       1.0000    0.24770   0.25000   0.62500   Biso      1.000     O          -0.9516459999999999           
         O32       1.0000    0.87490   0.88070   0.10750   Biso      1.000     O          -0.525979           
         O33       1.0000    0.74770   0.75000   0.12500   Biso      1.000     O          -0.9516459999999999           
         O34       1.0000    0.90040   0.78580   0.25120   Biso      1.000     O          -0.588205           
         O35       1.0000    0.75000   0.75230   0.37500   Biso      1.000     O          -0.9516450000000001           
         O36       1.0000    0.25000   0.25230   0.87500   Biso      1.000     O          -0.9516459999999999           
         O37       1.0000    0.37490   0.38070   0.60750   Biso      1.000     O          -0.525979           
         O38       1.0000    0.61930   0.87490   0.85750   Biso      1.000     O          -0.525979           
         O39       1.0000    0.09960   0.21420   0.25120   Biso      1.000     O          -0.588205           
         O40       1.0000    0.09960   0.28580   0.99880   Biso      1.000     O          -0.588205 