
##########################################################################
#               Crystallographic Information Format file
#               Produced by PyCifRW module
#
#  This is a CIF file.  CIF has been adopted by the International
#  Union of Crystallography as the standard for data archiving and
#  transmission.
#
#  For information on this file format, follow the CIF links at
#  http://www.iucr.org
##########################################################################

data_image0

_cell_length_a                          14.932
_cell_length_b                          14.932
_cell_length_c                          11.956
_cell_angle_alpha                       90
_cell_angle_beta                        90
_cell_angle_gamma                       90
_symmetry_space_group_name_H-M          'P 1'
_symmetry_int_tables_number             1
loop_
  _symmetry_equiv_pos_as_xyz
         'x, y, z' 
loop_
  _atom_site_label
  _atom_site_occupancy
  _atom_site_fract_x
  _atom_site_fract_y
  _atom_site_fract_z
  _atom_site_thermal_displace_type
  _atom_site_B_iso_or_equiv
  _atom_site_type_symbol
  _atom_site_charge
         C1        1.0000    0.00000   0.50000   0.18720   Biso      1.000     C          0.080698  
         C2        1.0000    0.00000   0.50000   0.54670   Biso      1.000     C          -0.10802300000000001          
         C3        1.0000    0.64030   0.59200   0.79780   Biso      1.000     C          0.598681  
         C4        1.0000    0.56860   0.54550   0.74070   Biso      1.000     C          -0.019193           
         C5        1.0000    0.56980   0.53940   0.62080   Biso      1.000     C          -0.155026           
         C6        1.0000    0.50000   0.00000   0.81280   Biso      1.000     C          0.08144900000000001           
         C7        1.0000    0.50000   0.00000   0.04670   Biso      1.000     C          -0.10802300000000001          
         C8        1.0000    0.93140   0.54550   0.00930   Biso      1.000     C          -0.018143           
         C9        1.0000    0.06860   0.04550   0.24070   Biso      1.000     C          -0.019195           
         C10       1.0000    0.06980   0.03940   0.12080   Biso      1.000     C          -0.155025           
         C11       1.0000    0.09200   0.14030   0.70220   Biso      1.000     C          0.599485  
         C12       1.0000    0.04550   0.06860   0.75930   Biso      1.000     C          -0.018141           
         C13       1.0000    0.03940   0.06980   0.87920   Biso      1.000     C          -0.15612  
         C14       1.0000    0.59200   0.64030   0.20220   Biso      1.000     C          0.599476  
         C15       1.0000    0.54550   0.56860   0.25930   Biso      1.000     C          -0.018144999999999998         
         C16       1.0000    0.53940   0.56980   0.37920   Biso      1.000     C          -0.156124           
         C17       1.0000    0.40800   0.35970   0.20220   Biso      1.000     C          0.599485  
         C18       1.0000    0.45450   0.43140   0.25930   Biso      1.000     C          -0.01814  
         C19       1.0000    0.85970   0.59200   0.95220   Biso      1.000     C          0.5994729999999999  
         C20       1.0000    0.35970   0.09200   0.45220   Biso      1.000     C          0.599483  
         C21       1.0000    0.43140   0.04550   0.50930   Biso      1.000     C          -0.018139           
         C22       1.0000    0.06980   0.46060   0.12920   Biso      1.000     C          -0.156123           
         C23       1.0000    0.06860   0.45450   0.00930   Biso      1.000     C          -0.018139           
         C24       1.0000    0.14030   0.40800   0.95220   Biso      1.000     C          0.599482  
         C25       1.0000    0.00000   0.50000   0.31280   Biso      1.000     C          0.08144900000000001           
         C26       1.0000    0.43020   0.03940   0.62920   Biso      1.000     C          -0.156123           
         C27       1.0000    0.56860   0.95450   0.50930   Biso      1.000     C          -0.018143           
         C28       1.0000    0.64030   0.90800   0.45220   Biso      1.000     C          0.5994729999999999  
         C29       1.0000    0.96060   0.93020   0.87920   Biso      1.000     C          -0.156124           
         C30       1.0000    0.95450   0.93140   0.75930   Biso      1.000     C          -0.018144999999999998         
         C31       1.0000    0.90800   0.85970   0.70220   Biso      1.000     C          0.599475  
         C32       1.0000    0.46060   0.43020   0.37920   Biso      1.000     C          -0.15612  
         C33       1.0000    0.56980   0.96060   0.62920   Biso      1.000     C          -0.156127           
         C34       1.0000    0.43020   0.46060   0.62080   Biso      1.000     C          -0.155025           
         C35       1.0000    0.14030   0.09200   0.29780   Biso      1.000     C          0.598691  
         C36       1.0000    0.35970   0.40800   0.79780   Biso      1.000     C          0.5986899999999999  
         C37       1.0000    0.43140   0.45450   0.74070   Biso      1.000     C          -0.019195           
         C38       1.0000    0.03940   0.43020   0.37080   Biso      1.000     C          -0.155024           
         C39       1.0000    0.04550   0.43140   0.49070   Biso      1.000     C          -0.019196           
         C40       1.0000    0.09200   0.35970   0.54780   Biso      1.000     C          0.598692  
         C41       1.0000    0.50000   0.50000   0.20330   Biso      1.000     C          -0.10845999999999999          
         C42       1.0000    0.50000   0.50000   0.43720   Biso      1.000     C          0.080699  
         C43       1.0000    0.96060   0.56980   0.37080   Biso      1.000     C          -0.155025           
         C44       1.0000    0.95450   0.56860   0.49070   Biso      1.000     C          -0.019195           
         C45       1.0000    0.90800   0.64030   0.54780   Biso      1.000     C          0.598683  
         C46       1.0000    0.50000   0.00000   0.45330   Biso      1.000     C          -0.10846300000000002          
         C47       1.0000    0.50000   0.00000   0.68720   Biso      1.000     C          0.080698  
         C48       1.0000    0.46060   0.06980   0.87080   Biso      1.000     C          -0.155024           
         C49       1.0000    0.45450   0.06860   0.99070   Biso      1.000     C          -0.019196           
         C50       1.0000    0.40800   0.14030   0.04780   Biso      1.000     C          0.598693  
         C51       1.0000    0.00000   0.50000   0.95330   Biso      1.000     C          -0.10846300000000002          
         C52       1.0000    0.00000   0.00000   0.93720   Biso      1.000     C          0.080699  
         C53       1.0000    0.00000   0.00000   0.70330   Biso      1.000     C          -0.10845999999999999          
         C54       1.0000    0.93020   0.53940   0.12920   Biso      1.000     C          -0.156127           
         C55       1.0000    0.00000   0.00000   0.29670   Biso      1.000     C          -0.108024           
         C56       1.0000    0.59200   0.85970   0.04780   Biso      1.000     C          0.598684  
         C57       1.0000    0.00000   0.00000   0.06280   Biso      1.000     C          0.081448  
         C58       1.0000    0.54550   0.93140   0.99070   Biso      1.000     C          -0.019194           
         C59       1.0000    0.93020   0.96060   0.12080   Biso      1.000     C          -0.155027           
         C60       1.0000    0.93140   0.95450   0.24070   Biso      1.000     C          -0.019193           
         C61       1.0000    0.53940   0.93020   0.87080   Biso      1.000     C          -0.155025           
         C62       1.0000    0.85970   0.90800   0.29780   Biso      1.000     C          0.598681  
         C63       1.0000    0.50000   0.50000   0.79670   Biso      1.000     C          -0.108024           
         C64       1.0000    0.50000   0.50000   0.56280   Biso      1.000     C          0.081447  
         Fe1       1.0000    0.69272   0.80728   0.25000   Biso      1.000     Fe          1.082401  
         Fe2       1.0000    0.30728   0.30728   0.00000   Biso      1.000     Fe          1.082492  
         Fe3       1.0000    0.80728   0.80728   0.50000   Biso      1.000     Fe          1.082387  
         Fe4       1.0000    0.19272   0.19272   0.50000   Biso      1.000     Fe          1.08249   
         Fe5       1.0000    0.69272   0.69272   0.00000   Biso      1.000     Fe          1.08239   
         Fe6       1.0000    0.19272   0.30728   0.75000   Biso      1.000     Fe          1.0824989999999999  
         Fe7       1.0000    0.30728   0.19272   0.25000   Biso      1.000     Fe          1.082506  
         Fe8       1.0000    0.80728   0.69272   0.75000   Biso      1.000     Fe          1.082392  
         H1        1.0000    0.50000   0.50000   0.12550   Biso      1.000     H          0.133374  
         H2        1.0000    0.00000   0.50000   0.62450   Biso      1.000     H          0.133464  
         H3        1.0000    0.88160   0.56250   0.16850   Biso      1.000     H          0.12406500000000001           
         H4        1.0000    0.30840   0.25000   0.62500   Biso      1.000     H          0.444072  
         H5        1.0000    0.00000   0.00000   0.37450   Biso      1.000     H          0.133464  
         H6        1.0000    0.00000   0.00000   0.62550   Biso      1.000     H          0.133374  
         H7        1.0000    0.69160   0.75000   0.62500   Biso      1.000     H          0.444071  
         H8        1.0000    0.50000   0.00000   0.37550   Biso      1.000     H          0.133374  
         H9        1.0000    0.38160   0.06250   0.66850   Biso      1.000     H          0.12406600000000001           
         H10       1.0000    0.25000   0.19160   0.87500   Biso      1.000     H          0.44407299999999994           
         H11       1.0000    0.50000   0.00000   0.12450   Biso      1.000     H          0.133464  
         H12       1.0000    0.75000   0.80840   0.87500   Biso      1.000     H          0.444072  
         H13       1.0000    0.25000   0.30840   0.37500   Biso      1.000     H          0.44407299999999994           
         H14       1.0000    0.75000   0.69160   0.37500   Biso      1.000     H          0.444072  
         H15       1.0000    0.50000   0.50000   0.87450   Biso      1.000     H          0.133464  
         H16       1.0000    0.19160   0.25000   0.12500   Biso      1.000     H          0.444072  
         H17       1.0000    0.80840   0.75000   0.12500   Biso      1.000     H          0.444072  
         H18       1.0000    0.93750   0.88160   0.91850   Biso      1.000     H          0.12406500000000001           
         H19       1.0000    0.11840   0.06250   0.08150   Biso      1.000     H          0.124028  
         H20       1.0000    0.56250   0.88160   0.83150   Biso      1.000     H          0.124029  
         H21       1.0000    0.38160   0.43750   0.58150   Biso      1.000     H          0.124028  
         H22       1.0000    0.43750   0.38160   0.41850   Biso      1.000     H          0.12406600000000001           
         H23       1.0000    0.06250   0.38160   0.33150   Biso      1.000     H          0.124029  
         H24       1.0000    0.06250   0.11840   0.91850   Biso      1.000     H          0.12406600000000001           
         H25       1.0000    0.56250   0.61840   0.41850   Biso      1.000     H          0.12406600000000001           
         H26       1.0000    0.00000   0.50000   0.87550   Biso      1.000     H          0.133374  
         H27       1.0000    0.61840   0.93750   0.66850   Biso      1.000     H          0.12406500000000001           
         H28       1.0000    0.61840   0.56250   0.58150   Biso      1.000     H          0.124029  
         H29       1.0000    0.11840   0.43750   0.16850   Biso      1.000     H          0.12406600000000001           
         H30       1.0000    0.43750   0.11840   0.83150   Biso      1.000     H          0.124029  
         H31       1.0000    0.93750   0.61840   0.33150   Biso      1.000     H          0.124029  
         H32       1.0000    0.88160   0.93750   0.08150   Biso      1.000     H          0.124029  
         O1        1.0000    0.71348   0.60014   0.74612   Biso      1.000     O          -0.491705           
         O2        1.0000    0.62090   0.62170   0.89340   Biso      1.000     O          -0.45646499999999995          
         O3        1.0000    0.37910   0.37830   0.89340   Biso      1.000     O          -0.456487           
         O4        1.0000    0.21348   0.10014   0.24612   Biso      1.000     O          -0.49171499999999996          
         O5        1.0000    0.28652   0.39986   0.74612   Biso      1.000     O          -0.49171400000000004          
         O6        1.0000    0.28652   0.10014   0.50388   Biso      1.000     O          -0.49623599999999995          
         O7        1.0000    0.78652   0.89986   0.24612   Biso      1.000     O          -0.49170699999999995          
         O8        1.0000    0.12090   0.12170   0.39340   Biso      1.000     O          -0.45648599999999995          
         O9        1.0000    0.60014   0.78652   0.99612   Biso      1.000     O          -0.49171000000000004          
         O10       1.0000    0.12170   0.37910   0.64340   Biso      1.000     O          -0.456481           
         O11       1.0000    0.10014   0.28652   0.49612   Biso      1.000     O          -0.49171800000000004          
         O12       1.0000    0.87830   0.62090   0.64340   Biso      1.000     O          -0.45646000000000003          
         O13       1.0000    0.89986   0.71348   0.49612   Biso      1.000     O          -0.49171000000000004          
         O14       1.0000    0.37830   0.12090   0.14340   Biso      1.000     O          -0.45648299999999997          
         O15       1.0000    0.87910   0.87830   0.39340   Biso      1.000     O          -0.45646400000000004          
         O16       1.0000    0.62170   0.87910   0.14340   Biso      1.000     O          -0.45646000000000003          
         O17       1.0000    0.75000   0.75320   0.87500   Biso      1.000     O          -0.827052           
         O18       1.0000    0.10014   0.21348   0.75388   Biso      1.000     O          -0.496233           
         O19       1.0000    0.37910   0.12170   0.35660   Biso      1.000     O          -0.45906  
         O20       1.0000    0.78652   0.60014   0.00388   Biso      1.000     O          -0.49620200000000003          
         O21       1.0000    0.12090   0.37830   0.85660   Biso      1.000     O          -0.459059           
         O22       1.0000    0.21348   0.39986   0.00388   Biso      1.000     O          -0.496237           
         O23       1.0000    0.62090   0.87830   0.35660   Biso      1.000     O          -0.45904700000000004          
         O24       1.0000    0.71348   0.89986   0.50388   Biso      1.000     O          -0.49620200000000003          
         O25       1.0000    0.87830   0.87910   0.60660   Biso      1.000     O          -0.459038           
         O26       1.0000    0.89986   0.78652   0.75388   Biso      1.000     O          -0.496197           
         O27       1.0000    0.37830   0.37910   0.10660   Biso      1.000     O          -0.45905100000000004          
         O28       1.0000    0.25000   0.25320   0.37500   Biso      1.000     O          -0.82711  
         O29       1.0000    0.24680   0.25000   0.12500   Biso      1.000     O          -0.8271270000000001           
         O30       1.0000    0.74680   0.75000   0.62500   Biso      1.000     O          -0.827066           
         O31       1.0000    0.25320   0.25000   0.62500   Biso      1.000     O          -0.827124           
         O32       1.0000    0.62170   0.62090   0.10660   Biso      1.000     O          -0.45903900000000003          
         O33       1.0000    0.75320   0.75000   0.12500   Biso      1.000     O          -0.827067           
         O34       1.0000    0.60014   0.71348   0.25388   Biso      1.000     O          -0.496199           
         O35       1.0000    0.75000   0.74680   0.37500   Biso      1.000     O          -0.827052           
         O36       1.0000    0.25000   0.24680   0.87500   Biso      1.000     O          -0.82711  
         O37       1.0000    0.12170   0.12090   0.60660   Biso      1.000     O          -0.45905  
         O38       1.0000    0.87910   0.62170   0.85660   Biso      1.000     O          -0.459045           
         O39       1.0000    0.39986   0.28652   0.25388   Biso      1.000     O          -0.496234           
         O40       1.0000    0.39986   0.21348   0.99612   Biso      1.000     O          -0.49171899999999996 