
##########################################################################
#               Crystallographic Information Format file
#               Produced by PyCifRW module
#
#  This is a CIF file.  CIF has been adopted by the International
#  Union of Crystallography as the standard for data archiving and
#  transmission.
#
#  For information on this file format, follow the CIF links at
#  http://www.iucr.org
##########################################################################

data_image0

_cell_length_a                          14.924
_cell_length_b                          14.924
_cell_length_c                          11.929
_cell_angle_alpha                       90
_cell_angle_beta                        90
_cell_angle_gamma                       90
_symmetry_space_group_name_H-M          'P 1'
_symmetry_int_tables_number             1
loop_
  _symmetry_equiv_pos_as_xyz
         'x, y, z' 
loop_
  _atom_site_label
  _atom_site_occupancy
  _atom_site_fract_x
  _atom_site_fract_y
  _atom_site_fract_z
  _atom_site_thermal_displace_type
  _atom_site_B_iso_or_equiv
  _atom_site_type_symbol
  _atom_site_charge
         C1        1.0000    0.35960   0.40890   0.29900   Biso      1.000     C          0.5988060000000001  
         C2        1.0000    0.85960   0.90890   0.79900   Biso      1.000     C          0.599837  
         C3        1.0000    0.93056   0.95670   0.74050   Biso      1.000     C          -0.019635           
         C4        1.0000    0.93110   0.96090   0.62030   Biso      1.000     C          -0.149634           
         C5        1.0000    0.00000   0.50000   0.04710   Biso      1.000     C          -0.10976400000000001          
         C6        1.0000    0.00000   0.50000   0.81230   Biso      1.000     C          0.082225  
         C7        1.0000    0.56944   0.95670   0.00950   Biso      1.000     C          -0.020713           
         C8        1.0000    0.43056   0.45670   0.24050   Biso      1.000     C          -0.020228           
         C9        1.0000    0.43110   0.46090   0.12030   Biso      1.000     C          -0.149834           
         C10       1.0000    0.40890   0.35960   0.70100   Biso      1.000     C          0.598792  
         C11       1.0000    0.45670   0.43056   0.75950   Biso      1.000     C          -0.020089           
         C12       1.0000    0.46090   0.43110   0.87970   Biso      1.000     C          -0.149213           
         C13       1.0000    0.90890   0.85960   0.20100   Biso      1.000     C          0.599065  
         C14       1.0000    0.95670   0.93056   0.25950   Biso      1.000     C          -0.020715           
         C15       1.0000    0.96090   0.93110   0.37970   Biso      1.000     C          -0.149346           
         C16       1.0000    0.09110   0.14040   0.20100   Biso      1.000     C          0.5987939999999999  
         C17       1.0000    0.04330   0.06944   0.25950   Biso      1.000     C          -0.02009  
         C18       1.0000    0.03910   0.06890   0.37970   Biso      1.000     C          -0.149214           
         C19       1.0000    0.64040   0.90890   0.95100   Biso      1.000     C          0.599072  
         C20       1.0000    0.14040   0.40890   0.45100   Biso      1.000     C          0.598795  
         C21       1.0000    0.06944   0.45670   0.50950   Biso      1.000     C          -0.020089           
         C22       1.0000    0.06890   0.46090   0.62970   Biso      1.000     C          -0.149213           
         C23       1.0000    0.43110   0.03910   0.12970   Biso      1.000     C          -0.14921099999999998          
         C24       1.0000    0.43056   0.04330   0.00950   Biso      1.000     C          -0.020092           
         C25       1.0000    0.50000   0.00000   0.31230   Biso      1.000     C          0.082226  
         C26       1.0000    0.35960   0.09110   0.95100   Biso      1.000     C          0.598793  
         C27       1.0000    0.93056   0.54330   0.50950   Biso      1.000     C          -0.020711           
         C28       1.0000    0.85960   0.59110   0.45100   Biso      1.000     C          0.599068  
         C29       1.0000    0.50000   0.00000   0.95290   Biso      1.000     C          -0.109607           
         C30       1.0000    0.53910   0.56890   0.87970   Biso      1.000     C          -0.14934  
         C31       1.0000    0.54330   0.56944   0.75950   Biso      1.000     C          -0.020714           
         C32       1.0000    0.59110   0.64040   0.70100   Biso      1.000     C          0.599069  
         C33       1.0000    0.93110   0.53910   0.62970   Biso      1.000     C          -0.149345           
         C34       1.0000    0.50000   0.00000   0.54710   Biso      1.000     C          -0.10976300000000001          
         C35       1.0000    0.56890   0.96090   0.12970   Biso      1.000     C          -0.149347           
         C36       1.0000    0.00000   0.50000   0.45290   Biso      1.000     C          -0.109606           
         C37       1.0000    0.06890   0.03910   0.62030   Biso      1.000     C          -0.149837           
         C38       1.0000    0.59110   0.85960   0.54900   Biso      1.000     C          0.599841  
         C39       1.0000    0.40890   0.14040   0.54900   Biso      1.000     C          0.598805  
         C40       1.0000    0.50000   0.50000   0.70290   Biso      1.000     C          -0.109609           
         C41       1.0000    0.50000   0.50000   0.93770   Biso      1.000     C          0.082563  
         C42       1.0000    0.90890   0.64040   0.04900   Biso      1.000     C          0.599841  
         C43       1.0000    0.00000   0.00000   0.43770   Biso      1.000     C          0.082561  
         C44       1.0000    0.00000   0.00000   0.20290   Biso      1.000     C          -0.10960999999999999          
         C45       1.0000    0.00000   0.50000   0.68770   Biso      1.000     C          0.082561  
         C46       1.0000    0.95670   0.56944   0.99050   Biso      1.000     C          -0.01964  
         C47       1.0000    0.96090   0.56890   0.87030   Biso      1.000     C          -0.14962999999999999          
         C48       1.0000    0.45670   0.06944   0.49050   Biso      1.000     C          -0.020229           
         C49       1.0000    0.54330   0.93056   0.49050   Biso      1.000     C          -0.01964  
         C50       1.0000    0.53910   0.93110   0.37030   Biso      1.000     C          -0.149628           
         C51       1.0000    0.04330   0.43056   0.99050   Biso      1.000     C          -0.020228           
         C52       1.0000    0.00000   0.00000   0.79710   Biso      1.000     C          -0.10977200000000001          
         C53       1.0000    0.00000   0.00000   0.56230   Biso      1.000     C          0.082229  
         C54       1.0000    0.64040   0.59110   0.29900   Biso      1.000     C          0.599835  
         C55       1.0000    0.56944   0.54330   0.24050   Biso      1.000     C          -0.019634           
         C56       1.0000    0.56890   0.53910   0.12030   Biso      1.000     C          -0.149633           
         C57       1.0000    0.09110   0.35960   0.04900   Biso      1.000     C          0.598804  
         C58       1.0000    0.50000   0.00000   0.18770   Biso      1.000     C          0.08255900000000001           
         C59       1.0000    0.50000   0.50000   0.29710   Biso      1.000     C          -0.10977200000000001          
         C60       1.0000    0.50000   0.50000   0.06230   Biso      1.000     C          0.082229  
         C61       1.0000    0.14040   0.09110   0.79900   Biso      1.000     C          0.598805  
         C62       1.0000    0.06944   0.04330   0.74050   Biso      1.000     C          -0.020232           
         C63       1.0000    0.03910   0.43110   0.87030   Biso      1.000     C          -0.149828           
         C64       1.0000    0.46090   0.06890   0.37030   Biso      1.000     C          -0.149827           
         Fe1       1.0000    0.80653   0.80653   0.00000   Biso      1.000     Fe          1.083167  
         Fe2       1.0000    0.69347   0.80653   0.75000   Biso      1.000     Fe          1.0830309999999999  
         Fe3       1.0000    0.30653   0.30653   0.50000   Biso      1.000     Fe          1.0776290000000002  
         Fe4       1.0000    0.19347   0.30653   0.25000   Biso      1.000     Fe          1.0776370000000002  
         Fe5       1.0000    0.69347   0.69347   0.50000   Biso      1.000     Fe          1.083136  
         Fe6       1.0000    0.19347   0.19347   0.00000   Biso      1.000     Fe          1.077595  
         Fe7       1.0000    0.80653   0.69347   0.25000   Biso      1.000     Fe          1.083034  
         Fe8       1.0000    0.30653   0.19347   0.75000   Biso      1.000     Fe          1.0776370000000002  
         H1        1.0000    0.00000   0.50000   0.37320   Biso      1.000     H          0.13426   
         H2        1.0000    0.11760   0.43590   0.67020   Biso      1.000     H          0.11969300000000001           
         H3        1.0000    0.50000   0.00000   0.62680   Biso      1.000     H          0.134214  
         H4        1.0000    0.50000   0.50000   0.62320   Biso      1.000     H          0.13426   
         H5        1.0000    0.30880   0.25000   0.12500   Biso      1.000     H          0.446042  
         H6        1.0000    0.80880   0.75000   0.62500   Biso      1.000     H          0.44609799999999994           
         H7        1.0000    0.19120   0.25000   0.62500   Biso      1.000     H          0.44605   
         H8        1.0000    0.69120   0.75000   0.12500   Biso      1.000     H          0.446092  
         H9        1.0000    0.75000   0.80880   0.37500   Biso      1.000     H          0.446097  
         H10       1.0000    0.00000   0.00000   0.87680   Biso      1.000     H          0.134211  
         H11       1.0000    0.25000   0.30880   0.87500   Biso      1.000     H          0.446046  
         H12       1.0000    0.75000   0.69120   0.87500   Biso      1.000     H          0.446096  
         H13       1.0000    0.25000   0.19120   0.37500   Biso      1.000     H          0.446047  
         H14       1.0000    0.00000   0.50000   0.12680   Biso      1.000     H          0.134214  
         H15       1.0000    0.50000   0.50000   0.37680   Biso      1.000     H          0.134213  
         H16       1.0000    0.00000   0.00000   0.12320   Biso      1.000     H          0.134257  
         H17       1.0000    0.56410   0.61760   0.92020   Biso      1.000     H          0.119539  
         H18       1.0000    0.50000   0.00000   0.87320   Biso      1.000     H          0.134259  
         H19       1.0000    0.93590   0.61760   0.82980   Biso      1.000     H          0.119717  
         H20       1.0000    0.61760   0.93590   0.17020   Biso      1.000     H          0.119538  
         H21       1.0000    0.88240   0.93590   0.57980   Biso      1.000     H          0.119719  
         H22       1.0000    0.43590   0.38240   0.92020   Biso      1.000     H          0.11969400000000001           
         H23       1.0000    0.11760   0.06410   0.57980   Biso      1.000     H          0.119567  
         H24       1.0000    0.61760   0.56410   0.07980   Biso      1.000     H          0.119718  
         H25       1.0000    0.93590   0.88240   0.42020   Biso      1.000     H          0.119539  
         H26       1.0000    0.06410   0.11760   0.42020   Biso      1.000     H          0.119692  
         H27       1.0000    0.43590   0.11760   0.32980   Biso      1.000     H          0.11956900000000001           
         H28       1.0000    0.38240   0.43590   0.07980   Biso      1.000     H          0.11956800000000001           
         H29       1.0000    0.88240   0.56410   0.67020   Biso      1.000     H          0.11954000000000001           
         H30       1.0000    0.06410   0.38240   0.82980   Biso      1.000     H          0.11956800000000001           
         H31       1.0000    0.56410   0.88240   0.32980   Biso      1.000     H          0.11972000000000001           
         H32       1.0000    0.38240   0.06410   0.17020   Biso      1.000     H          0.11969300000000001           
         O1        1.0000    0.40056   0.21388   0.49783   Biso      1.000     O          -0.49671800000000005          
         O2        1.0000    0.28612   0.40056   0.24783   Biso      1.000     O          -0.496721           
         O3        1.0000    0.12249   0.37951   0.14331   Biso      1.000     O          -0.454987           
         O4        1.0000    0.87951   0.87751   0.89331   Biso      1.000     O          -0.45711499999999994          
         O5        1.0000    0.59944   0.78612   0.49783   Biso      1.000     O          -0.500121           
         O6        1.0000    0.78612   0.90056   0.74783   Biso      1.000     O          -0.500121           
         O7        1.0000    0.21388   0.09944   0.74783   Biso      1.000     O          -0.49672299999999997          
         O8        1.0000    0.37751   0.12049   0.64331   Biso      1.000     O          -0.454982           
         O9        1.0000    0.62249   0.87951   0.64331   Biso      1.000     O          -0.457084           
         O10       1.0000    0.62049   0.62249   0.39331   Biso      1.000     O          -0.457109           
         O11       1.0000    0.71388   0.59944   0.24783   Biso      1.000     O          -0.500116           
         O12       1.0000    0.37951   0.37751   0.39331   Biso      1.000     O          -0.454982           
         O13       1.0000    0.87751   0.62049   0.14331   Biso      1.000     O          -0.457088           
         O14       1.0000    0.90056   0.71388   0.99783   Biso      1.000     O          -0.500127           
         O15       1.0000    0.12049   0.12249   0.89331   Biso      1.000     O          -0.454974           
         O16       1.0000    0.21388   0.40056   0.50217   Biso      1.000     O          -0.49687600000000004          
         O17       1.0000    0.75000   0.74630   0.87500   Biso      1.000     O          -0.827101           
         O18       1.0000    0.40056   0.28612   0.75217   Biso      1.000     O          -0.49687200000000004          
         O19       1.0000    0.12049   0.37751   0.35669   Biso      1.000     O          -0.455117           
         O20       1.0000    0.62049   0.87751   0.85669   Biso      1.000     O          -0.45472399999999996          
         O21       1.0000    0.71388   0.90056   0.00217   Biso      1.000     O          -0.495828           
         O22       1.0000    0.37951   0.12249   0.85669   Biso      1.000     O          -0.45511999999999997          
         O23       1.0000    0.28612   0.09944   0.00217   Biso      1.000     O          -0.49686499999999995          
         O24       1.0000    0.87951   0.62249   0.35669   Biso      1.000     O          -0.454722           
         O25       1.0000    0.78612   0.59944   0.50217   Biso      1.000     O          -0.495821           
         O26       1.0000    0.62249   0.62049   0.60669   Biso      1.000     O          -0.454722           
         O27       1.0000    0.59944   0.71388   0.75217   Biso      1.000     O          -0.495816           
         O28       1.0000    0.25000   0.24630   0.37500   Biso      1.000     O          -0.8245049999999999           
         O29       1.0000    0.12249   0.12049   0.10669   Biso      1.000     O          -0.455114           
         O30       1.0000    0.09944   0.21388   0.25217   Biso      1.000     O          -0.496879           
         O31       1.0000    0.75370   0.75000   0.62500   Biso      1.000     O          -0.8271360000000001           
         O32       1.0000    0.24630   0.25000   0.62500   Biso      1.000     O          -0.8244969999999999           
         O33       1.0000    0.87751   0.87951   0.10669   Biso      1.000     O          -0.454721           
         O34       1.0000    0.74630   0.75000   0.12500   Biso      1.000     O          -0.827149           
         O35       1.0000    0.90056   0.78612   0.25217   Biso      1.000     O          -0.49581400000000003          
         O36       1.0000    0.75000   0.75370   0.37500   Biso      1.000     O          -0.8271129999999999           
         O37       1.0000    0.25000   0.25370   0.87500   Biso      1.000     O          -0.8245040000000001           
         O38       1.0000    0.37751   0.37951   0.60669   Biso      1.000     O          -0.455113           
         O39       1.0000    0.25370   0.25000   0.12500   Biso      1.000     O          -0.8245020000000001           
         O40       1.0000    0.09944   0.28612   0.99783   Biso      1.000     O          -0.49671400000000004 