
##########################################################################
#               Crystallographic Information Format file
#               Produced by PyCifRW module
#
#  This is a CIF file.  CIF has been adopted by the International
#  Union of Crystallography as the standard for data archiving and
#  transmission.
#
#  For information on this file format, follow the CIF links at
#  http://www.iucr.org
##########################################################################

data_image0

_cell_length_a                          9.8561
_cell_length_b                          11.9538
_cell_length_c                          22.8463
_cell_angle_alpha                       90
_cell_angle_beta                        95.506
_cell_angle_gamma                       90
_symmetry_space_group_name_H-M          'P 1'
_symmetry_int_tables_number             1
loop_
  _symmetry_equiv_pos_as_xyz
         'x, y, z' 
loop_
  _atom_site_label
  _atom_site_occupancy
  _atom_site_fract_x
  _atom_site_fract_y
  _atom_site_fract_z
  _atom_site_thermal_displace_type
  _atom_site_B_iso_or_equiv
  _atom_site_type_symbol
  _atom_site_charge
         C1        1.0000    0.76410   0.49520   0.35272   Biso      1.000     C          0.129475  
         C2        1.0000    0.02390   0.17420   0.51226   Biso      1.000     C          0.568944  
         C3        1.0000    0.76920   0.20500   0.49684   Biso      1.000     C          -0.145708           
         C4        1.0000    0.63740   0.17830   0.50802   Biso      1.000     C          -0.012496           
         C5        1.0000    0.97610   0.82580   0.48774   Biso      1.000     C          0.568951  
         C6        1.0000    0.61500   0.09000   0.54582   Biso      1.000     C          -0.120884           
         C7        1.0000    0.80570   0.15320   0.09359   Biso      1.000     C          0.118563  
         C8        1.0000    0.87960   0.14470   0.52294   Biso      1.000     C          -0.015468           
         C9        1.0000    0.98310   0.74680   0.01750   Biso      1.000     C          0.5809    
         C10       1.0000    0.64300   0.31710   0.21872   Biso      1.000     C          -0.093402           
         C11       1.0000    0.50240   0.28670   0.19015   Biso      1.000     C          -0.132763           
         C12       1.0000    0.54670   0.33410   0.31323   Biso      1.000     C          -0.0847   
         C13       1.0000    0.76880   0.42740   0.29743   Biso      1.000     C          -0.145314           
         C14       1.0000    0.40920   0.30780   0.28239   Biso      1.000     C          -0.130657           
         C15       1.0000    0.28520   0.20640   0.20445   Biso      1.000     C          -0.158415           
         C16       1.0000    0.86260   0.67830   0.99198   Biso      1.000     C          -0.012496           
         C17       1.0000    0.28310   0.10540   0.16537   Biso      1.000     C          0.173476  
         C18       1.0000    0.85720   0.05760   0.56169   Biso      1.000     C          -0.123972           
         C19       1.0000    0.80770   0.09530   0.14586   Biso      1.000     C          -0.221225           
         C20       1.0000    0.13740   0.51210   0.32040   Biso      1.000     C          -0.200855           
         C21       1.0000    0.14670   0.42000   0.35711   Biso      1.000     C          0.080515  
         C22       1.0000    0.30950   0.50500   0.42059   Biso      1.000     C          0.096671  
         C23       1.0000    0.30530   0.60020   0.38591   Biso      1.000     C          -0.206754           
         C24       1.0000    0.21690   0.60540   0.33463   Biso      1.000     C          0.173473  
         C25       1.0000    0.21480   0.70640   0.29555   Biso      1.000     C          -0.158414           
         C26       1.0000    0.72480   0.03170   0.57258   Biso      1.000     C          -0.059833           
         C27       1.0000    0.09080   0.80780   0.21761   Biso      1.000     C          -0.130657           
         C28       1.0000    0.99760   0.78670   0.30985   Biso      1.000     C          -0.132762           
         C29       1.0000    0.85700   0.81710   0.28128   Biso      1.000     C          -0.093403           
         C30       1.0000    0.73120   0.92740   0.20257   Biso      1.000     C          -0.145313           
         C31       1.0000    0.73590   0.99520   0.14728   Biso      1.000     C          0.129474  
         C32       1.0000    0.66520   0.95850   0.09565   Biso      1.000     C          -0.178164           
         C33       1.0000    0.66970   0.02180   0.04479   Biso      1.000     C          0.115936  
         C34       1.0000    0.95330   0.83410   0.18677   Biso      1.000     C          -0.084701           
         C35       1.0000    0.30570   0.34680   0.59359   Biso      1.000     C          0.118563  
         C36       1.0000    0.19470   0.10020   0.11409   Biso      1.000     C          -0.206753           
         C37       1.0000    0.47610   0.67420   0.98774   Biso      1.000     C          0.56895   
         C38       1.0000    0.78310   0.39460   0.66537   Biso      1.000     C          0.173475  
         C39       1.0000    0.78520   0.29360   0.70445   Biso      1.000     C          -0.158415           
         C40       1.0000    0.90920   0.19220   0.78239   Biso      1.000     C          -0.130656           
         C41       1.0000    0.04670   0.16590   0.81323   Biso      1.000     C          -0.084701           
         C42       1.0000    0.00240   0.21330   0.69015   Biso      1.000     C          -0.132763           
         C43       1.0000    0.14300   0.18290   0.71872   Biso      1.000     C          -0.093403           
         C44       1.0000    0.69470   0.39980   0.61409   Biso      1.000     C          -0.206754           
         C45       1.0000    0.26880   0.07260   0.79743   Biso      1.000     C          -0.145313           
         C46       1.0000    0.33480   0.04150   0.90435   Biso      1.000     C          -0.178164           
         C47       1.0000    0.33030   0.97820   0.95521   Biso      1.000     C          0.115938  
         C48       1.0000    0.19230   0.90470   0.85414   Biso      1.000     C          -0.221231           
         C49       1.0000    0.27520   0.96830   0.42742   Biso      1.000     C          -0.059833           
         C50       1.0000    0.14280   0.94240   0.43831   Biso      1.000     C          -0.123973           
         C51       1.0000    0.12040   0.85530   0.47706   Biso      1.000     C          -0.01547  
         C52       1.0000    0.26410   0.00480   0.85272   Biso      1.000     C          0.129473  
         C53       1.0000    0.73080   0.70500   0.00316   Biso      1.000     C          -0.145707           
         C54       1.0000    0.69050   0.49500   0.57941   Biso      1.000     C          0.096677  
         C55       1.0000    0.86260   0.48790   0.67960   Biso      1.000     C          -0.20085  
         C56       1.0000    0.69430   0.65320   0.40641   Biso      1.000     C          0.118564  
         C57       1.0000    0.62040   0.64470   0.97706   Biso      1.000     C          -0.015467           
         C58       1.0000    0.64280   0.55760   0.93831   Biso      1.000     C          -0.123973           
         C59       1.0000    0.77520   0.53170   0.92742   Biso      1.000     C          -0.059836           
         C60       1.0000    0.69230   0.59530   0.35414   Biso      1.000     C          -0.221225           
         C61       1.0000    0.83030   0.52180   0.45521   Biso      1.000     C          0.115933  
         C62       1.0000    0.85330   0.58000   0.64289   Biso      1.000     C          0.080503  
         C63       1.0000    0.83480   0.45850   0.40435   Biso      1.000     C          -0.178163           
         C64       1.0000    0.35330   0.92000   0.14289   Biso      1.000     C          0.0805    
         C65       1.0000    0.36260   0.01210   0.17960   Biso      1.000     C          -0.200844           
         C66       1.0000    0.19430   0.84680   0.90641   Biso      1.000     C          0.118567  
         C67       1.0000    0.38500   0.91000   0.45418   Biso      1.000     C          -0.120885           
         C68       1.0000    0.48310   0.75320   0.51750   Biso      1.000     C          0.580902  
         C69       1.0000    0.36260   0.82170   0.49198   Biso      1.000     C          -0.012498           
         C70       1.0000    0.19050   0.00500   0.07941   Biso      1.000     C          0.096675  
         C71       1.0000    0.11500   0.41000   0.04582   Biso      1.000     C          -0.120886           
         C72       1.0000    0.51690   0.24680   0.48250   Biso      1.000     C          0.580908  
         C73       1.0000    0.13740   0.32170   0.00802   Biso      1.000     C          -0.012497           
         C74       1.0000    0.88500   0.59000   0.95418   Biso      1.000     C          -0.120884           
         C75       1.0000    0.01690   0.25320   0.98250   Biso      1.000     C          0.5809    
         C76       1.0000    0.63740   0.98790   0.82040   Biso      1.000     C          -0.200851           
         C77       1.0000    0.64670   0.08000   0.85711   Biso      1.000     C          0.080503  
         C78       1.0000    0.80950   0.99500   0.92059   Biso      1.000     C          0.096674  
         C79       1.0000    0.80530   0.89980   0.88591   Biso      1.000     C          -0.20675  
         C80       1.0000    0.71690   0.89460   0.83463   Biso      1.000     C          0.173475  
         C81       1.0000    0.71480   0.79360   0.79555   Biso      1.000     C          -0.158415           
         C82       1.0000    0.59080   0.69220   0.71761   Biso      1.000     C          -0.130656           
         C83       1.0000    0.45330   0.66590   0.68677   Biso      1.000     C          -0.084701           
         C84       1.0000    0.49760   0.71330   0.80985   Biso      1.000     C          -0.132762           
         C85       1.0000    0.23080   0.79500   0.50316   Biso      1.000     C          -0.145709           
         C86       1.0000    0.23120   0.57260   0.70257   Biso      1.000     C          -0.145314           
         C87       1.0000    0.23590   0.50480   0.64728   Biso      1.000     C          0.129477  
         C88       1.0000    0.16520   0.54150   0.59565   Biso      1.000     C          -0.178159           
         C89       1.0000    0.16970   0.47820   0.54479   Biso      1.000     C          0.115943  
         C90       1.0000    0.30770   0.40470   0.64586   Biso      1.000     C          -0.221221           
         C91       1.0000    0.22480   0.46830   0.07258   Biso      1.000     C          -0.059833           
         C92       1.0000    0.35720   0.44240   0.06169   Biso      1.000     C          -0.123972           
         C93       1.0000    0.37960   0.35530   0.02294   Biso      1.000     C          -0.015468           
         C94       1.0000    0.26920   0.29500   0.99684   Biso      1.000     C          -0.145707           
         C95       1.0000    0.52390   0.32580   0.01226   Biso      1.000     C          0.568951  
         C96       1.0000    0.35700   0.68290   0.78128   Biso      1.000     C          -0.093403           
         H1        1.0000    0.59250   0.26420   0.32750   Biso      1.000     H          0.136333  
         H2        1.0000    0.53660   0.38290   0.34760   Biso      1.000     H          0.124425  
         H3        1.0000    0.45550   0.35530   0.17460   Biso      1.000     H          0.100472  
         H4        1.0000    0.81350   0.47210   0.26830   Biso      1.000     H          0.132706  
         H5        1.0000    0.69290   0.24820   0.23160   Biso      1.000     H          0.103712  
         H6        1.0000    0.69520   0.35580   0.18980   Biso      1.000     H          0.128821  
         H7        1.0000    0.36400   0.37810   0.26840   Biso      1.000     H          0.093809  
         H8        1.0000    0.51160   0.23550   0.15670   Biso      1.000     H          0.120778  
         H9        1.0000    0.35200   0.27200   0.31040   Biso      1.000     H          0.128938  
         H10       1.0000    0.40870   0.85680   0.15350   Biso      1.000     H          0.096301  
         H11       1.0000    0.25010   0.27160   0.18090   Biso      1.000     H          0.104593  
         H12       1.0000    0.13720   0.16200   0.10290   Biso      1.000     H          0.12933   
         H13       1.0000    0.12920   0.00300   0.04470   Biso      1.000     H          0.098823  
         H14       1.0000    0.82500   0.35980   0.30650   Biso      1.000     H          0.133909  
         H15       1.0000    0.42340   0.01130   0.21450   Biso      1.000     H          0.125213  
         H16       1.0000    0.59400   0.45200   0.25740   Biso      1.000     H          0.288532  
         H17       1.0000    0.14520   0.77850   0.90680   Biso      1.000     H          0.107994  
         H18       1.0000    0.47520   0.92980   0.44690   Biso      1.000     H          0.131792  
         H19       1.0000    0.21560   0.73490   0.52890   Biso      1.000     H          0.103589  
         H20       1.0000    0.22320   0.19350   0.23540   Biso      1.000     H          0.128187  
         H21       1.0000    0.88570   0.39090   0.40510   Biso      1.000     H          0.133719  
         H22       1.0000    0.71560   0.76510   0.02890   Biso      1.000     H          0.103591  
         H23       1.0000    0.64260   0.62340   0.31960   Biso      1.000     H          0.122638  
         H24       1.0000    0.40600   0.54800   0.74260   Biso      1.000     H          0.288532  
         H25       1.0000    0.57660   0.98870   0.78550   Biso      1.000     H          0.125212  
         H26       1.0000    0.59130   0.14320   0.84650   Biso      1.000     H          0.0963    
         H27       1.0000    0.87080   0.99700   0.95530   Biso      1.000     H          0.098824  
         H28       1.0000    0.86280   0.83800   0.89710   Biso      1.000     H          0.12933   
         H29       1.0000    0.74990   0.72840   0.81910   Biso      1.000     H          0.104593  
         H30       1.0000    0.77680   0.80650   0.76460   Biso      1.000     H          0.128185  
         H31       1.0000    0.64800   0.72800   0.68960   Biso      1.000     H          0.128936  
         H32       1.0000    0.63600   0.62190   0.73160   Biso      1.000     H          0.093809  
         H33       1.0000    0.40750   0.73580   0.67250   Biso      1.000     H          0.136334  
         H34       1.0000    0.46340   0.61710   0.65240   Biso      1.000     H          0.124424  
         H35       1.0000    0.54450   0.64470   0.82540   Biso      1.000     H          0.100472  
         H36       1.0000    0.48840   0.76450   0.84330   Biso      1.000     H          0.12078   
         H37       1.0000    0.30710   0.75180   0.76840   Biso      1.000     H          0.103712  
         H38       1.0000    0.30480   0.64420   0.81020   Biso      1.000     H          0.128822  
         H39       1.0000    0.18650   0.52790   0.73170   Biso      1.000     H          0.132707  
         H40       1.0000    0.17500   0.64020   0.69350   Biso      1.000     H          0.13391   
         H41       1.0000    0.64520   0.72150   0.40680   Biso      1.000     H          0.107995  
         H42       1.0000    0.97520   0.57020   0.94690   Biso      1.000     H          0.131793  
         H43       1.0000    0.06820   0.98340   0.41970   Biso      1.000     H          0.119381  
         H44       1.0000    0.56820   0.51660   0.91970   Biso      1.000     H          0.119381  
         H45       1.0000    0.87840   0.49520   0.49050   Biso      1.000     H          0.090367  
         H46       1.0000    0.14260   0.87660   0.81960   Biso      1.000     H          0.122637  
         H47       1.0000    0.19520   0.14420   0.68980   Biso      1.000     H          0.128821  
         H48       1.0000    0.38570   0.10910   0.90510   Biso      1.000     H          0.133719  
         H49       1.0000    0.37080   0.50300   0.45530   Biso      1.000     H          0.098818  
         H50       1.0000    0.36280   0.66200   0.39710   Biso      1.000     H          0.129328  
         H51       1.0000    0.24990   0.77160   0.31910   Biso      1.000     H          0.104593  
         H52       1.0000    0.27680   0.69350   0.26460   Biso      1.000     H          0.128185  
         H53       1.0000    0.14800   0.77200   0.18960   Biso      1.000     H          0.128935  
         H54       1.0000    0.13600   0.87810   0.23160   Biso      1.000     H          0.09381   
         H55       1.0000    0.90750   0.76420   0.17250   Biso      1.000     H          0.136334  
         H56       1.0000    0.96340   0.88290   0.15240   Biso      1.000     H          0.124424  
         H57       1.0000    0.04450   0.85530   0.32540   Biso      1.000     H          0.100473  
         H58       1.0000    0.98840   0.73550   0.34330   Biso      1.000     H          0.120779  
         H59       1.0000    0.80710   0.74820   0.26840   Biso      1.000     H          0.103712  
         H60       1.0000    0.80480   0.85580   0.31020   Biso      1.000     H          0.128822  
         H61       1.0000    0.68650   0.97210   0.23170   Biso      1.000     H          0.132706  
         H62       1.0000    0.67500   0.85980   0.19350   Biso      1.000     H          0.133909  
         H63       1.0000    0.61430   0.89090   0.09490   Biso      1.000     H          0.133719  
         H64       1.0000    0.62160   0.99520   0.00950   Biso      1.000     H          0.090368  
         H65       1.0000    0.85740   0.12340   0.18040   Biso      1.000     H          0.122638  
         H66       1.0000    0.93180   0.01660   0.58030   Biso      1.000     H          0.119382  
         H67       1.0000    0.78440   0.26510   0.47110   Biso      1.000     H          0.103592  
         H68       1.0000    0.52480   0.07020   0.55310   Biso      1.000     H          0.131793  
         H69       1.0000    0.85480   0.22150   0.09320   Biso      1.000     H          0.107994  
         H70       1.0000    0.09130   0.35680   0.34650   Biso      1.000     H          0.096299  
         H71       1.0000    0.37840   0.00480   0.99050   Biso      1.000     H          0.090369  
         H72       1.0000    0.07660   0.51130   0.28550   Biso      1.000     H          0.125211  
         H73       1.0000    0.35480   0.27850   0.59320   Biso      1.000     H          0.107996  
         H74       1.0000    0.32500   0.14020   0.80650   Biso      1.000     H          0.133909  
         H75       1.0000    0.31350   0.02790   0.76830   Biso      1.000     H          0.132705  
         H76       1.0000    0.19290   0.25180   0.73160   Biso      1.000     H          0.103712  
         H77       1.0000    0.01160   0.26450   0.65670   Biso      1.000     H          0.120777  
         H78       1.0000    0.95550   0.14470   0.67460   Biso      1.000     H          0.100472  
         H79       1.0000    0.03660   0.11710   0.84760   Biso      1.000     H          0.124425  
         H80       1.0000    0.09250   0.23580   0.82750   Biso      1.000     H          0.136334  
         H81       1.0000    0.86400   0.12190   0.76840   Biso      1.000     H          0.093809  
         H82       1.0000    0.72320   0.30650   0.73540   Biso      1.000     H          0.128186  
         H83       1.0000    0.75010   0.22840   0.68090   Biso      1.000     H          0.104593  
         H84       1.0000    0.63720   0.33800   0.60290   Biso      1.000     H          0.12933   
         H85       1.0000    0.62920   0.49700   0.54470   Biso      1.000     H          0.098823  
         H86       1.0000    0.90870   0.64320   0.65350   Biso      1.000     H          0.096301  
         H87       1.0000    0.92340   0.48870   0.71450   Biso      1.000     H          0.125213  
         H88       1.0000    0.09400   0.04800   0.75740   Biso      1.000     H          0.288533  
         H89       1.0000    0.11430   0.60910   0.59490   Biso      1.000     H          0.133722  
         H90       1.0000    0.12160   0.50480   0.50950   Biso      1.000     H          0.090373  
         H91       1.0000    0.35740   0.37660   0.68040   Biso      1.000     H          0.12264   
         H92       1.0000    0.43180   0.48340   0.08030   Biso      1.000     H          0.119381  
         H93       1.0000    0.28440   0.23490   0.97110   Biso      1.000     H          0.103591  
         H94       1.0000    0.02480   0.42980   0.05310   Biso      1.000     H          0.131793  
         H95       1.0000    0.90600   0.95200   0.24260   Biso      1.000     H          0.288533  
         H96       1.0000    0.85200   0.22800   0.81040   Biso      1.000     H          0.128936  
         N1        1.0000    0.76990   0.58460   0.59300   Biso      1.000     N          -0.220689           
         N2        1.0000    0.13060   0.10780   0.77093   Biso      1.000     N          -0.027546           
         N3        1.0000    0.26260   0.88260   0.95707   Biso      1.000     N          -0.202879           
         N4        1.0000    0.26990   0.91540   0.09300   Biso      1.000     N          -0.220691           
         N5        1.0000    0.42080   0.23290   0.23230   Biso      1.000     N          -0.135585           
         N6        1.0000    0.63060   0.39220   0.27093   Biso      1.000     N          -0.027546           
         N7        1.0000    0.76260   0.61740   0.45707   Biso      1.000     N          -0.202881           
         N8        1.0000    0.73740   0.11740   0.04293   Biso      1.000     N          -0.20288  
         N9        1.0000    0.86940   0.89220   0.22907   Biso      1.000     N          -0.027546           
         N10       1.0000    0.07920   0.73290   0.26770   Biso      1.000     N          -0.135585           
         N11       1.0000    0.23010   0.41540   0.40700   Biso      1.000     N          -0.220711           
         N12       1.0000    0.36940   0.60780   0.72907   Biso      1.000     N          -0.027546           
         N13       1.0000    0.57920   0.76710   0.76770   Biso      1.000     N          -0.135585           
         N14       1.0000    0.73010   0.08460   0.90700   Biso      1.000     N          -0.220689           
         N15       1.0000    0.92080   0.26710   0.73230   Biso      1.000     N          -0.135585           
         N16       1.0000    0.23740   0.38260   0.54293   Biso      1.000     N          -0.202891           
         O1        1.0000    0.74070   0.98335   0.68281   Biso      1.000     O          -0.67787  
         O2        1.0000    0.46350   0.66595   0.54397   Biso      1.000     O          -0.587015           
         O3        1.0000    0.96160   0.76113   0.53209   Biso      1.000     O          -0.591689           
         O4        1.0000    0.87980   0.86281   0.45508   Biso      1.000     O          -0.560661           
         O5        1.0000    0.22110   0.16721   0.38382   Biso      1.000     O          -0.641749           
         O6        1.0000    0.45050   0.09198   0.37909   Biso      1.000     O          -0.613959           
         O7        1.0000    0.09860   0.70672   0.00681   Biso      1.000     O          -0.557131           
         O8        1.0000    0.96350   0.83405   0.04397   Biso      1.000     O          -0.587011           
         O9        1.0000    0.46160   0.73887   0.03209   Biso      1.000     O          -0.591685           
         O10       1.0000    0.37980   0.63719   0.95508   Biso      1.000     O          -0.560663           
         O11       1.0000    0.72110   0.33279   0.88382   Biso      1.000     O          -0.641754           
         O12       1.0000    0.59860   0.79328   0.50681   Biso      1.000     O          -0.557131           
         O13       1.0000    0.25930   0.01665   0.31719   Biso      1.000     O          -0.677877           
         O14       1.0000    0.75930   0.48335   0.81719   Biso      1.000     O          -0.677872           
         O15       1.0000    0.24070   0.51665   0.18281   Biso      1.000     O          -0.677867           
         O16       1.0000    0.95050   0.40802   0.87909   Biso      1.000     O          -0.613954           
         O17       1.0000    0.54950   0.90802   0.62091   Biso      1.000     O          -0.613954           
         O18       1.0000    0.77890   0.83279   0.61618   Biso      1.000     O          -0.641754           
         O19       1.0000    0.12020   0.13719   0.54492   Biso      1.000     O          -0.560655           
         O20       1.0000    0.03840   0.23887   0.46791   Biso      1.000     O          -0.59168  
         O21       1.0000    0.53650   0.33405   0.45603   Biso      1.000     O          -0.587005           
         O22       1.0000    0.40140   0.20672   0.49319   Biso      1.000     O          -0.55715  
         O23       1.0000    0.90140   0.29328   0.99319   Biso      1.000     O          -0.55713  
         O24       1.0000    0.04950   0.59198   0.12091   Biso      1.000     O          -0.613954           
         O25       1.0000    0.27890   0.66721   0.11618   Biso      1.000     O          -0.641754           
         O26       1.0000    0.62020   0.36281   0.04492   Biso      1.000     O          -0.560661           
         O27       1.0000    0.53840   0.26113   0.96791   Biso      1.000     O          -0.591686           
         O28       1.0000    0.03650   0.16595   0.95603   Biso      1.000     O          -0.587013           
         S1        1.0000    0.19425   0.56961   0.12673   Biso      1.000     S          1.192165  
         S2        1.0000    0.69425   0.93039   0.62673   Biso      1.000     S          1.192165  
         S3        1.0000    0.30575   0.06961   0.37327   Biso      1.000     S          1.192161  
         S4        1.0000    0.80575   0.43039   0.87327   Biso      1.000     S          1.192166  
         Zn1       1.0000    0.76535   0.71990   0.53666   Biso      1.000     Zn          0.806365  
         Zn2       1.0000    0.26535   0.78010   0.03666   Biso      1.000     Zn          0.806365  
         Zn3       1.0000    0.23465   0.28010   0.46335   Biso      1.000     Zn          0.806397  
         Zn4       1.0000    0.73465   0.21990   0.96334   Biso      1.000     Zn          0.806366 