
##########################################################################
#               Crystallographic Information Format file
#               Produced by PyCifRW module
#
#  This is a CIF file.  CIF has been adopted by the International
#  Union of Crystallography as the standard for data archiving and
#  transmission.
#
#  For information on this file format, follow the CIF links at
#  http://www.iucr.org
##########################################################################

data_image0

_cell_length_a                          10.741
_cell_length_b                          11.109
_cell_length_c                          11.933
_cell_angle_alpha                       77.678
_cell_angle_beta                        84.65
_cell_angle_gamma                       75.99
_symmetry_space_group_name_H-M          'P 1'
_symmetry_int_tables_number             1
loop_
  _symmetry_equiv_pos_as_xyz
         'x, y, z' 
loop_
  _atom_site_label
  _atom_site_occupancy
  _atom_site_fract_x
  _atom_site_fract_y
  _atom_site_fract_z
  _atom_site_thermal_displace_type
  _atom_site_B_iso_or_equiv
  _atom_site_type_symbol
  _atom_site_charge
         C1        1.0000    0.31820   0.29110   0.82740   Biso      1.000     C          -0.167046           
         C2        1.0000    0.19450   0.98220   0.49300   Biso      1.000     C          0.11588499999999999           
         C3        1.0000    0.27510   0.95180   0.40130   Biso      1.000     C          0.044127  
         C4        1.0000    0.23800   0.15680   0.30430   Biso      1.000     C          0.07033099999999999           
         C5        1.0000    0.15650   0.19620   0.38880   Biso      1.000     C          -0.12353800000000001          
         C6        1.0000    0.13370   0.10750   0.48750   Biso      1.000     C          -0.083752           
         C7        1.0000    0.25110   0.27330   0.72440   Biso      1.000     C          -0.285902           
         C8        1.0000    0.24700   0.37770   0.61960   Biso      1.000     C          0.133441  
         C9        1.0000    0.14970   0.48580   0.60100   Biso      1.000     C          -0.0866   
         C10       1.0000    0.15440   0.57320   0.50010   Biso      1.000     C          -0.135934           
         C11       1.0000    0.25620   0.55540   0.42170   Biso      1.000     C          0.057052  
         C12       1.0000    0.34460   0.36300   0.53470   Biso      1.000     C          0.041696  
         C13       1.0000    0.74520   0.12630   0.29630   Biso      1.000     C          -0.162731           
         C14       1.0000    0.82310   0.11870   0.40240   Biso      1.000     C          -0.297099           
         C15       1.0000    0.80550   0.01780   0.50700   Biso      1.000     C          0.115212  
         C16       1.0000    0.72490   0.04820   0.59870   Biso      1.000     C          0.044083  
         C17       1.0000    0.76200   0.84320   0.69570   Biso      1.000     C          0.069815  
         C18       1.0000    0.84350   0.80380   0.61120   Biso      1.000     C          -0.12461400000000002          
         C19       1.0000    0.86630   0.89250   0.51250   Biso      1.000     C          -0.08491900000000001          
         C20       1.0000    0.68180   0.70890   0.17260   Biso      1.000     C          -0.167857           
         C21       1.0000    0.74890   0.72670   0.27560   Biso      1.000     C          -0.28579899999999997          
         C22       1.0000    0.75300   0.62230   0.38040   Biso      1.000     C          0.13339600000000001           
         C23       1.0000    0.85030   0.51420   0.39900   Biso      1.000     C          -0.08623  
         C24       1.0000    0.84560   0.42680   0.49990   Biso      1.000     C          -0.13553800000000002          
         C25       1.0000    0.74380   0.44460   0.57830   Biso      1.000     C          0.057848000000000004          
         C26       1.0000    0.65540   0.63700   0.46530   Biso      1.000     C          0.041825  
         C27       1.0000    0.17690   0.88130   0.59760   Biso      1.000     C          -0.29751  
         C28       1.0000    0.25480   0.87370   0.70370   Biso      1.000     C          -0.16271300000000002          
         Cu1       1.0000    0.54615   0.00692   0.80234   Biso      1.000     Cu          1.010189  
         Cu2       1.0000    0.50959   0.41749   0.33146   Biso      1.000     Cu          0.917918  
         Cu3       1.0000    0.47807   0.75665   0.93413   Biso      1.000     Cu          1.0960159999999999  
         Cu4       1.0000    0.49041   0.58251   0.66854   Biso      1.000     Cu          0.9199459999999999  
         Cu5       1.0000    0.03020   0.21568   0.06598   Biso      1.000     Cu          0.548385  
         Cu6       1.0000    0.45385   0.99308   0.19766   Biso      1.000     Cu          1.010234  
         Cu7       1.0000    0.52193   0.24335   0.06587   Biso      1.000     Cu          1.0943260000000001  
         Cu8       1.0000    0.96980   0.78432   0.93402   Biso      1.000     Cu          0.556806  
         H1        1.0000    0.11570   0.28130   0.38210   Biso      1.000     H          0.12188800000000001           
         H2        1.0000    0.25310   0.21690   0.24040   Biso      1.000     H          0.09223200000000001           
         H3        1.0000    0.31620   0.86720   0.40450   Biso      1.000     H          0.111007  
         H4        1.0000    0.20060   0.79960   0.57490   Biso      1.000     H          0.12593900000000002           
         H5        1.0000    0.13250   0.97030   0.79270   Biso      1.000     H          0.37574   
         H6        1.0000    0.19770   0.38070   0.92370   Biso      1.000     H          0.360786  
         H7        1.0000    0.07890   0.13290   0.54750   Biso      1.000     H          0.11849900000000001           
         H8        1.0000    0.25940   0.61690   0.35570   Biso      1.000     H          0.10980999999999999           
         H9        1.0000    0.08640   0.89610   0.62100   Biso      1.000     H          0.12494000000000001           
         H10       1.0000    0.16380   0.26710   0.74890   Biso      1.000     H          0.139693  
         H11       1.0000    0.40840   0.28870   0.54520   Biso      1.000     H          0.123748  
         H12       1.0000    0.08250   0.49960   0.65530   Biso      1.000     H          0.125497  
         H13       1.0000    0.68380   0.13280   0.59550   Biso      1.000     H          0.11058399999999999           
         H14       1.0000    0.79940   0.20040   0.42510   Biso      1.000     H          0.125803  
         H15       1.0000    0.91360   0.10390   0.37900   Biso      1.000     H          0.124508  
         H16       1.0000    0.80230   0.61930   0.07630   Biso      1.000     H          0.36088899999999996           
         H17       1.0000    0.86750   0.02970   0.20730   Biso      1.000     H          0.37590100000000004           
         H18       1.0000    0.88430   0.71870   0.61790   Biso      1.000     H          0.12137200000000001           
         H19       1.0000    0.83620   0.73290   0.25110   Biso      1.000     H          0.13975   
         H20       1.0000    0.92110   0.86710   0.45250   Biso      1.000     H          0.11794400000000001           
         H21       1.0000    0.91750   0.50040   0.34470   Biso      1.000     H          0.125503  
         H22       1.0000    0.91200   0.35500   0.51500   Biso      1.000     H          0.11569700000000001           
         H23       1.0000    0.29550   0.19380   0.70310   Biso      1.000     H          0.142058  
         H24       1.0000    0.74060   0.38310   0.64430   Biso      1.000     H          0.110258  
         H25       1.0000    0.59160   0.71130   0.45480   Biso      1.000     H          0.123695  
         H26       1.0000    0.08800   0.64500   0.48500   Biso      1.000     H          0.115586  
         H27       1.0000    0.70450   0.80620   0.29690   Biso      1.000     H          0.142056  
         H28       1.0000    0.74690   0.78310   0.75960   Biso      1.000     H          0.091423  
         N1        1.0000    0.70180   0.96380   0.69250   Biso      1.000     N          -0.21989499999999998          
         N2        1.0000    0.35190   0.44930   0.43920   Biso      1.000     N          -0.224152           
         N3        1.0000    0.29820   0.03620   0.30750   Biso      1.000     N          -0.21564499999999998          
         N4        1.0000    0.64810   0.55070   0.56080   Biso      1.000     N          -0.22323800000000002          
         O1        1.0000    0.52210   0.33790   0.91230   Biso      1.000     O          -0.709228           
         O2        1.0000    0.38010   0.16510   0.04630   Biso      1.000     O          -0.8048890000000001           
         O3        1.0000    0.24490   0.40230   0.86890   Biso      1.000     O          -0.47422299999999995          
         O4        1.0000    0.51090   0.14540   0.22230   Biso      1.000     O          -0.756963           
         O5        1.0000    0.52730   0.23990   0.39410   Biso      1.000     O          -0.700735           
         O6        1.0000    0.56300   0.00300   0.40930   Biso      1.000     O          -0.583617           
         O7        1.0000    0.68060   0.38460   0.24750   Biso      1.000     O          -0.700674           
         O8        1.0000    0.17320   0.14920   0.97330   Biso      1.000     O          -0.684257           
         O9        1.0000    0.69350   0.26600   0.08320   Biso      1.000     O          -0.70513  
         O10       1.0000    0.80130   0.01860   0.24380   Biso      1.000     O          -0.471587           
         O11       1.0000    0.50080   0.59500   0.29980   Biso      1.000     O          -0.696064           
         O12       1.0000    0.43120   0.82550   0.21410   Biso      1.000     O          -0.753438           
         O13       1.0000    0.47790   0.66210   0.08770   Biso      1.000     O          -0.708298           
         O14       1.0000    0.62000   0.96270   0.10810   Biso      1.000     O          -0.718445           
         O15       1.0000    0.82680   0.85080   0.02670   Biso      1.000     O          -0.683491           
         O16       1.0000    0.89300   0.27890   0.17030   Biso      1.000     O          -0.666479           
         O17       1.0000    0.38000   0.03730   0.89190   Biso      1.000     O          -0.7266130000000001           
         O18       1.0000    0.75510   0.59770   0.13110   Biso      1.000     O          -0.473263           
         O19       1.0000    0.56880   0.17450   0.78590   Biso      1.000     O          -0.7580439999999999           
         O20       1.0000    0.61990   0.83490   0.95370   Biso      1.000     O          -0.799955           
         O21       1.0000    0.47270   0.76010   0.60590   Biso      1.000     O          -0.702723           
         O22       1.0000    0.43700   0.99700   0.59070   Biso      1.000     O          -0.579946           
         O23       1.0000    0.31940   0.61540   0.75250   Biso      1.000     O          -0.698491           
         O24       1.0000    0.48910   0.85460   0.77770   Biso      1.000     O          -0.7637430000000001           
         O25       1.0000    0.10700   0.72110   0.82970   Biso      1.000     O          -0.667296           
         O26       1.0000    0.19870   0.98140   0.75620   Biso      1.000     O          -0.47075100000000003          
         O27       1.0000    0.49920   0.40500   0.70020   Biso      1.000     O          -0.696811           
         O28       1.0000    0.30650   0.73400   0.91680   Biso      1.000     O          -0.703199           
         P1        1.0000    0.42400   0.87020   0.66390   Biso      1.000     P          1.225334  
         P2        1.0000    0.68720   0.84820   0.05610   Biso      1.000     P          1.25376   
         P3        1.0000    0.51240   0.69700   0.19620   Biso      1.000     P          1.284693  
         P4        1.0000    0.75310   0.27490   0.19150   Biso      1.000     P          1.224967  
         P5        1.0000    0.57600   0.12980   0.33610   Biso      1.000     P          1.223667  
         P6        1.0000    0.31280   0.15180   0.94390   Biso      1.000     P          1.25502   
         P7        1.0000    0.48760   0.30300   0.80380   Biso      1.000     P          1.284828  
         P8        1.0000    0.24690   0.72510   0.80850   Biso      1.000     P          1.22546 