
##########################################################################
#               Crystallographic Information Format file
#               Produced by PyCifRW module
#
#  This is a CIF file.  CIF has been adopted by the International
#  Union of Crystallography as the standard for data archiving and
#  transmission.
#
#  For information on this file format, follow the CIF links at
#  http://www.iucr.org
##########################################################################

data_image0

_cell_length_a                          7.1782
_cell_length_b                          15.4441
_cell_length_c                          15.4441
_cell_angle_alpha                       119.448
_cell_angle_beta                        90
_cell_angle_gamma                       90
_symmetry_space_group_name_H-M          'P 1'
_symmetry_int_tables_number             1
loop_
  _symmetry_equiv_pos_as_xyz
         'x, y, z' 
loop_
  _atom_site_label
  _atom_site_occupancy
  _atom_site_fract_x
  _atom_site_fract_y
  _atom_site_fract_z
  _atom_site_thermal_displace_type
  _atom_site_B_iso_or_equiv
  _atom_site_type_symbol
  _atom_site_charge
         C1        1.0000    0.79600   0.69870   0.02190   Biso      1.000     C          -0.218045           
         C2        1.0000    0.12100   0.07260   0.69700   Biso      1.000     C          -0.226919           
         C3        1.0000    0.87400   0.93520   0.69360   Biso      1.000     C          -0.094262           
         C4        1.0000    0.18590   0.98590   0.69090   Biso      1.000     C          -0.078077           
         C5        1.0000    0.06630   0.91260   0.68680   Biso      1.000     C          -0.082481           
         C6        1.0000    0.13390   0.82330   0.68130   Biso      1.000     C          0.692445  
         C7        1.0000    0.09070   0.53610   0.39910   Biso      1.000     C          0.586408  
         C8        1.0000    0.03500   0.58420   0.33520   Biso      1.000     C          -0.038862           
         C9        1.0000    0.00400   0.52630   0.23670   Biso      1.000     C          -0.085163           
         C10       1.0000    0.01700   0.68730   0.38250   Biso      1.000     C          -0.069621           
         C11       1.0000    0.95200   0.56570   0.17650   Biso      1.000     C          -0.218487           
         C12       1.0000    0.97090   0.73710   0.33350   Biso      1.000     C          -0.193239           
         C13       1.0000    0.94600   0.67480   0.23120   Biso      1.000     C          0.254149  
         C14       1.0000    0.93200   0.70050   0.08830   Biso      1.000     C          0.274643  
         C15       1.0000    0.12100   0.69700   0.07260   Biso      1.000     C          -0.226912           
         C16       1.0000    0.87400   0.69360   0.93520   Biso      1.000     C          -0.094263           
         C17       1.0000    0.18590   0.69090   0.98590   Biso      1.000     C          -0.078078           
         C18       1.0000    0.06630   0.68680   0.91260   Biso      1.000     C          -0.082481           
         C19       1.0000    0.13390   0.68130   0.82330   Biso      1.000     C          0.692445  
         C20       1.0000    0.53500   0.41580   0.66480   Biso      1.000     C          -0.038863           
         C21       1.0000    0.79600   0.02190   0.69870   Biso      1.000     C          -0.218046           
         C22       1.0000    0.50400   0.47370   0.76330   Biso      1.000     C          -0.085163           
         C23       1.0000    0.93200   0.08830   0.70050   Biso      1.000     C          0.27465   
         C24       1.0000    0.97090   0.33350   0.73710   Biso      1.000     C          -0.193252           
         C25       1.0000    0.59070   0.60090   0.46390   Biso      1.000     C          0.586409  
         C26       1.0000    0.53500   0.66480   0.41580   Biso      1.000     C          -0.038863           
         C27       1.0000    0.50400   0.76330   0.47370   Biso      1.000     C          -0.085163           
         C28       1.0000    0.51700   0.61750   0.31270   Biso      1.000     C          -0.069621           
         C29       1.0000    0.45200   0.82350   0.43430   Biso      1.000     C          -0.218488           
         C30       1.0000    0.47090   0.66650   0.26290   Biso      1.000     C          -0.193239           
         C31       1.0000    0.44600   0.76880   0.32520   Biso      1.000     C          0.254149  
         C32       1.0000    0.43200   0.91170   0.29950   Biso      1.000     C          0.274643  
         C33       1.0000    0.29600   0.97810   0.30130   Biso      1.000     C          -0.218044           
         C34       1.0000    0.62100   0.92740   0.30300   Biso      1.000     C          -0.226911           
         C35       1.0000    0.37400   0.06480   0.30640   Biso      1.000     C          -0.094264           
         C36       1.0000    0.68590   0.01410   0.30910   Biso      1.000     C          -0.078078           
         C37       1.0000    0.56630   0.08740   0.31320   Biso      1.000     C          -0.082482           
         C38       1.0000    0.63390   0.17670   0.31870   Biso      1.000     C          0.692456  
         C39       1.0000    0.09070   0.39910   0.53610   Biso      1.000     C          0.586409  
         C40       1.0000    0.03500   0.33520   0.58420   Biso      1.000     C          -0.038864           
         C41       1.0000    0.00400   0.23670   0.52630   Biso      1.000     C          -0.085163           
         C42       1.0000    0.01700   0.38250   0.68730   Biso      1.000     C          -0.069608           
         C43       1.0000    0.95200   0.17650   0.56570   Biso      1.000     C          -0.218487           
         C44       1.0000    0.94600   0.23120   0.67480   Biso      1.000     C          0.254151  
         C45       1.0000    0.51700   0.31270   0.61750   Biso      1.000     C          -0.069622           
         C46       1.0000    0.59070   0.46390   0.60090   Biso      1.000     C          0.586409  
         C47       1.0000    0.47090   0.26290   0.66650   Biso      1.000     C          -0.193239           
         C48       1.0000    0.63390   0.31870   0.17670   Biso      1.000     C          0.692456  
         C49       1.0000    0.56630   0.31320   0.08740   Biso      1.000     C          -0.082482           
         C50       1.0000    0.68590   0.30910   0.01410   Biso      1.000     C          -0.078081           
         C51       1.0000    0.37400   0.30640   0.06480   Biso      1.000     C          -0.094264           
         C52       1.0000    0.45200   0.43430   0.82350   Biso      1.000     C          -0.218487           
         C53       1.0000    0.29600   0.30130   0.97810   Biso      1.000     C          -0.218044           
         C54       1.0000    0.43200   0.29950   0.91170   Biso      1.000     C          0.274643  
         C55       1.0000    0.44600   0.32520   0.76880   Biso      1.000     C          0.254149  
         C56       1.0000    0.62100   0.30300   0.92740   Biso      1.000     C          -0.226909           
         H1        1.0000    0.03820   0.72370   0.45070   Biso      1.000     H          0.111723  
         H2        1.0000    0.92450   0.52730   0.10910   Biso      1.000     H          0.143549  
         H3        1.0000    0.95730   0.80570   0.36490   Biso      1.000     H          0.148651  
         H4        1.0000    0.66880   0.70080   0.03360   Biso      1.000     H          0.150447  
         H5        1.0000    0.20410   0.69870   0.11970   Biso      1.000     H          0.12986   
         H6        1.0000    0.79170   0.69470   0.88930   Biso      1.000     H          0.100872  
         H7        1.0000    0.31380   0.68930   0.97570   Biso      1.000     H          0.111287  
         H8        1.0000    0.53820   0.27630   0.54930   Biso      1.000     H          0.111724  
         H9        1.0000    0.42450   0.47270   0.89090   Biso      1.000     H          0.143549  
         H10       1.0000    0.45730   0.19430   0.63510   Biso      1.000     H          0.148651  
         H11       1.0000    0.01760   0.45770   0.20830   Biso      1.000     H          0.112333  
         H12       1.0000    0.70410   0.30130   0.88030   Biso      1.000     H          0.12986   
         H13       1.0000    0.29170   0.30530   0.11070   Biso      1.000     H          0.100871  
         H14       1.0000    0.81380   0.31070   0.02430   Biso      1.000     H          0.111287  
         H15       1.0000    0.51760   0.54230   0.79170   Biso      1.000     H          0.112334  
         H16       1.0000    0.16880   0.29920   0.96640   Biso      1.000     H          0.150447  
         H17       1.0000    0.31380   0.97570   0.68930   Biso      1.000     H          0.111287  
         H18       1.0000    0.20410   0.11970   0.69870   Biso      1.000     H          0.129861  
         H19       1.0000    0.79170   0.88930   0.69470   Biso      1.000     H          0.100872  
         H20       1.0000    0.53820   0.54930   0.27630   Biso      1.000     H          0.111723  
         H21       1.0000    0.42450   0.89090   0.47270   Biso      1.000     H          0.143549  
         H22       1.0000    0.45730   0.63510   0.19430   Biso      1.000     H          0.148651  
         H23       1.0000    0.16880   0.96640   0.29920   Biso      1.000     H          0.150447  
         H24       1.0000    0.70410   0.88030   0.30130   Biso      1.000     H          0.129861  
         H25       1.0000    0.51760   0.79170   0.54230   Biso      1.000     H          0.112334  
         H26       1.0000    0.81380   0.02430   0.31070   Biso      1.000     H          0.111288  
         H27       1.0000    0.01760   0.20830   0.45770   Biso      1.000     H          0.112334  
         H28       1.0000    0.03820   0.45070   0.72370   Biso      1.000     H          0.111723  
         H29       1.0000    0.92450   0.10910   0.52730   Biso      1.000     H          0.143549  
         H30       1.0000    0.95730   0.36490   0.80570   Biso      1.000     H          0.148652  
         H31       1.0000    0.66880   0.03360   0.70080   Biso      1.000     H          0.150447  
         H32       1.0000    0.29170   0.11070   0.30530   Biso      1.000     H          0.100872  
         Na1       1.0000    0.27480   0.32050   0.32050   Biso      1.000     Na          0.88704   
         Na2       1.0000    0.77480   0.67950   0.67950   Biso      1.000     Na          0.887033  
         O1        1.0000    0.52920   0.24770   0.33410   Biso      1.000     O          -0.708717           
         O2        1.0000    0.35180   0.81850   0.27930   Biso      1.000     O          -0.266693           
         O3        1.0000    0.77500   0.19140   0.31200   Biso      1.000     O          -0.535621           
         O4        1.0000    0.04620   0.35940   0.43940   Biso      1.000     O          -0.568798           
         O5        1.0000    0.16860   0.47910   0.58650   Biso      1.000     O          -0.552565           
         O6        1.0000    0.85180   0.18150   0.72070   Biso      1.000     O          -0.266693           
         O7        1.0000    0.02920   0.75230   0.66590   Biso      1.000     O          -0.708701           
         O8        1.0000    0.27500   0.80860   0.68800   Biso      1.000     O          -0.535617           
         O9        1.0000    0.04620   0.43940   0.35940   Biso      1.000     O          -0.568798           
         O10       1.0000    0.16860   0.58650   0.47910   Biso      1.000     O          -0.552565           
         O11       1.0000    0.54620   0.64060   0.56060   Biso      1.000     O          -0.568801           
         O12       1.0000    0.02920   0.66590   0.75230   Biso      1.000     O          -0.708701           
         O13       1.0000    0.27500   0.68800   0.80860   Biso      1.000     O          -0.535617           
         O14       1.0000    0.54620   0.56060   0.64060   Biso      1.000     O          -0.568801           
         O15       1.0000    0.66860   0.41350   0.52090   Biso      1.000     O          -0.552564           
         O16       1.0000    0.35180   0.27930   0.81850   Biso      1.000     O          -0.266693           
         O17       1.0000    0.52920   0.33410   0.24770   Biso      1.000     O          -0.708714           
         O18       1.0000    0.77500   0.31200   0.19140   Biso      1.000     O          -0.535619           
         O19       1.0000    0.66860   0.52090   0.41350   Biso      1.000     O          -0.552564           
         O20       1.0000    0.85180   0.72070   0.18150   Biso      1.000     O          -0.266693           
         Yb1       1.0000    0.26860   0.63360   0.63360   Biso      1.000     Yb          1.355283  
         Yb2       1.0000    0.76860   0.36640   0.36640   Biso      1.000     Yb          1.355285 