
##########################################################################
#               Crystallographic Information Format file
#               Produced by PyCifRW module
#
#  This is a CIF file.  CIF has been adopted by the International
#  Union of Crystallography as the standard for data archiving and
#  transmission.
#
#  For information on this file format, follow the CIF links at
#  http://www.iucr.org
##########################################################################

data_image0

_cell_length_a                          6.946
_cell_length_b                          12.6262
_cell_length_c                          12.6262
_cell_angle_alpha                       97.3981
_cell_angle_beta                        96.1062
_cell_angle_gamma                       83.8938
_symmetry_space_group_name_H-M          'P 1'
_symmetry_int_tables_number             1
loop_
  _symmetry_equiv_pos_as_xyz
         'x, y, z' 
loop_
  _atom_site_label
  _atom_site_occupancy
  _atom_site_fract_x
  _atom_site_fract_y
  _atom_site_fract_z
  _atom_site_thermal_displace_type
  _atom_site_B_iso_or_equiv
  _atom_site_type_symbol
  _atom_site_charge
         C1        1.0000    0.48140   0.29670   0.34950   Biso      1.000     C          0.5242680000000001  
         C2        1.0000    0.69760   0.04010   0.55270   Biso      1.000     C          0.517837  
         C3        1.0000    0.81400   0.34680   0.81780   Biso      1.000     C          0.5324720000000001  
         C4        1.0000    0.01860   0.34950   0.29670   Biso      1.000     C          0.5242680000000001  
         C5        1.0000    0.82630   0.18650   0.51410   Biso      1.000     C          0.6113689999999999  
         C6        1.0000    0.86240   0.33020   0.63940   Biso      1.000     C          0.597201  
         C7        1.0000    0.94250   0.33310   0.46310   Biso      1.000     C          0.574997  
         C8        1.0000    0.80240   0.55270   0.04010   Biso      1.000     C          0.517839  
         C9        1.0000    0.68600   0.81780   0.34680   Biso      1.000     C          0.532473  
         C10       1.0000    0.67370   0.51410   0.18650   Biso      1.000     C          0.611368  
         C11       1.0000    0.63760   0.63940   0.33020   Biso      1.000     C          0.597201  
         C12       1.0000    0.55750   0.46310   0.33310   Biso      1.000     C          0.574996  
         C13       1.0000    0.30240   0.95990   0.44730   Biso      1.000     C          0.517839  
         C14       1.0000    0.18600   0.65320   0.18220   Biso      1.000     C          0.532475  
         C15       1.0000    0.17370   0.81350   0.48590   Biso      1.000     C          0.61137   
         C16       1.0000    0.98140   0.65050   0.70330   Biso      1.000     C          0.524271  
         C17       1.0000    0.05750   0.66690   0.53690   Biso      1.000     C          0.574997  
         C18       1.0000    0.19760   0.44730   0.95990   Biso      1.000     C          0.517838  
         C19       1.0000    0.31400   0.18220   0.65320   Biso      1.000     C          0.532474  
         C20       1.0000    0.51860   0.70330   0.65050   Biso      1.000     C          0.5242680000000001  
         C21       1.0000    0.32630   0.48590   0.81350   Biso      1.000     C          0.6113689999999999  
         C22       1.0000    0.36240   0.36060   0.66980   Biso      1.000     C          0.597201  
         C23       1.0000    0.44250   0.53690   0.66690   Biso      1.000     C          0.574996  
         C24       1.0000    0.13760   0.66980   0.36060   Biso      1.000     C          0.597201  
         H1        1.0000    0.43450   0.42290   0.54870   Biso      1.000     H          0.306693  
         H2        1.0000    0.06550   0.54870   0.42290   Biso      1.000     H          0.306695  
         H3        1.0000    0.93450   0.45130   0.57710   Biso      1.000     H          0.306694  
         H4        1.0000    0.56550   0.57710   0.45130   Biso      1.000     H          0.306693  
         N1        1.0000    0.48980   0.39670   0.39150   Biso      1.000     N          -0.471754           
         N2        1.0000    0.71610   0.89830   0.32070   Biso      1.000     N          -0.5817140000000001           
         N3        1.0000    0.68780   0.61150   0.23510   Biso      1.000     N          -0.541552           
         N4        1.0000    0.60200   0.43980   0.23080   Biso      1.000     N          -0.5432779999999999           
         N5        1.0000    0.58330   0.56260   0.38440   Biso      1.000     N          -0.45558699999999996          
         N6        1.0000    0.47130   0.20620   0.32180   Biso      1.000     N          -0.558609           
         N7        1.0000    0.65020   0.73400   0.39100   Biso      1.000     N          -0.463876           
         N8        1.0000    0.74380   0.47880   0.09140   Biso      1.000     N          -0.457686           
         N9        1.0000    0.39800   0.56020   0.76920   Biso      1.000     N          -0.54328  
         N10       1.0000    0.91670   0.38440   0.56260   Biso      1.000     N          -0.455586           
         N11       1.0000    0.89800   0.23080   0.43980   Biso      1.000     N          -0.543279           
         N12       1.0000    0.81220   0.23510   0.61150   Biso      1.000     N          -0.541549           
         N13       1.0000    0.01020   0.39150   0.39670   Biso      1.000     N          -0.471754           
         N14       1.0000    0.36240   0.01230   0.39350   Biso      1.000     N          -0.49597399999999997          
         N15       1.0000    0.02870   0.32180   0.20620   Biso      1.000     N          -0.558606           
         N16       1.0000    0.84980   0.39100   0.73400   Biso      1.000     N          -0.463872           
         N17       1.0000    0.78390   0.32070   0.89830   Biso      1.000     N          -0.581711           
         N18       1.0000    0.86240   0.60650   0.98770   Biso      1.000     N          -0.49597299999999994          
         N19       1.0000    0.24380   0.90860   0.52120   Biso      1.000     N          -0.45768000000000003          
         N20       1.0000    0.63760   0.98770   0.60650   Biso      1.000     N          -0.49597600000000003          
         N21       1.0000    0.15020   0.60900   0.26600   Biso      1.000     N          -0.46387  
         N22       1.0000    0.41670   0.43740   0.61560   Biso      1.000     N          -0.45558699999999996          
         N23       1.0000    0.75620   0.09140   0.47880   Biso      1.000     N          -0.45768000000000003          
         N24       1.0000    0.31220   0.38850   0.76490   Biso      1.000     N          -0.541551           
         N25       1.0000    0.51020   0.60330   0.60850   Biso      1.000     N          -0.471754           
         N26       1.0000    0.52870   0.79380   0.67820   Biso      1.000     N          -0.55861  
         N27       1.0000    0.21610   0.67930   0.10170   Biso      1.000     N          -0.581708           
         N28       1.0000    0.28390   0.10170   0.67930   Biso      1.000     N          -0.5817140000000001           
         N29       1.0000    0.34980   0.26600   0.60900   Biso      1.000     N          -0.463875           
         N30       1.0000    0.13760   0.39350   0.01230   Biso      1.000     N          -0.495972           
         N31       1.0000    0.08330   0.61560   0.43740   Biso      1.000     N          -0.455585           
         N32       1.0000    0.10200   0.76920   0.56020   Biso      1.000     N          -0.543277           
         N33       1.0000    0.18780   0.76490   0.38850   Biso      1.000     N          -0.541547           
         N34       1.0000    0.98980   0.60850   0.60330   Biso      1.000     N          -0.47175200000000006          
         N35       1.0000    0.97130   0.67820   0.79380   Biso      1.000     N          -0.558603           
         N36       1.0000    0.25620   0.52120   0.90860   Biso      1.000     N          -0.457687           
         Ni1       1.0000    0.40606   0.94705   0.67899   Biso      1.000     Ni          0.9051819999999999  
         Ni2       1.0000    0.09394   0.67899   0.94705   Biso      1.000     Ni          0.9051739999999999  
         Ni3       1.0000    0.59394   0.05295   0.32101   Biso      1.000     Ni          0.9051790000000001  
         Ni4       1.0000    0.90606   0.32101   0.05295   Biso      1.000     Ni          0.905173 