
##########################################################################
#               Crystallographic Information Format file
#               Produced by PyCifRW module
#
#  This is a CIF file.  CIF has been adopted by the International
#  Union of Crystallography as the standard for data archiving and
#  transmission.
#
#  For information on this file format, follow the CIF links at
#  http://www.iucr.org
##########################################################################

data_image0

_cell_length_a                          7.073
_cell_length_b                          12.9993
_cell_length_c                          12.9993
_cell_angle_alpha                       97.7758
_cell_angle_beta                        95.5986
_cell_angle_gamma                       84.4014
_symmetry_space_group_name_H-M          'P 1'
_symmetry_int_tables_number             1
loop_
  _symmetry_equiv_pos_as_xyz
         'x, y, z' 
loop_
  _atom_site_label
  _atom_site_occupancy
  _atom_site_fract_x
  _atom_site_fract_y
  _atom_site_fract_z
  _atom_site_thermal_displace_type
  _atom_site_B_iso_or_equiv
  _atom_site_type_symbol
  _atom_site_charge
         C1        1.0000    0.68970   0.80970   0.35110   Biso      1.000     C          0.533583  
         C2        1.0000    0.63640   0.63910   0.33550   Biso      1.000     C          0.578968  
         C3        1.0000    0.56050   0.46580   0.33700   Biso      1.000     C          0.58498   
         C4        1.0000    0.28100   0.95400   0.44420   Biso      1.000     C          0.513219  
         C5        1.0000    0.18970   0.64890   0.19030   Biso      1.000     C          0.533583  
         C6        1.0000    0.98130   0.64970   0.69610   Biso      1.000     C          0.533834  
         C7        1.0000    0.16520   0.80610   0.48290   Biso      1.000     C          0.587053  
         C8        1.0000    0.13640   0.66450   0.36090   Biso      1.000     C          0.578968  
         C9        1.0000    0.06050   0.66300   0.53420   Biso      1.000     C          0.58498   
         C10       1.0000    0.21900   0.44420   0.95400   Biso      1.000     C          0.513219  
         C11       1.0000    0.31030   0.19030   0.64890   Biso      1.000     C          0.533583  
         C12       1.0000    0.51870   0.69610   0.64970   Biso      1.000     C          0.533834  
         C13       1.0000    0.33480   0.48290   0.80610   Biso      1.000     C          0.587053  
         C14       1.0000    0.36360   0.36090   0.66450   Biso      1.000     C          0.578968  
         C15       1.0000    0.43950   0.53420   0.66300   Biso      1.000     C          0.58498   
         C16       1.0000    0.78100   0.55580   0.04600   Biso      1.000     C          0.513219  
         C17       1.0000    0.93950   0.33700   0.46580   Biso      1.000     C          0.58498   
         C18       1.0000    0.86360   0.33550   0.63910   Biso      1.000     C          0.578968  
         C19       1.0000    0.83480   0.19390   0.51710   Biso      1.000     C          0.587053  
         C20       1.0000    0.01870   0.35030   0.30390   Biso      1.000     C          0.533834  
         C21       1.0000    0.81030   0.35110   0.80970   Biso      1.000     C          0.533583  
         C22       1.0000    0.71900   0.04600   0.55580   Biso      1.000     C          0.513219  
         C23       1.0000    0.66520   0.51710   0.19390   Biso      1.000     C          0.587053  
         C24       1.0000    0.48130   0.30390   0.35030   Biso      1.000     C          0.533834  
         Cd1       1.0000    0.90525   0.32258   0.05242   Biso      1.000     Cd          1.042835  
         Cd2       1.0000    0.40525   0.94758   0.67742   Biso      1.000     Cd          1.042835  
         Cd3       1.0000    0.09475   0.67742   0.94758   Biso      1.000     Cd          1.042835  
         Cd4       1.0000    0.59475   0.05242   0.32258   Biso      1.000     Cd          1.042835  
         H1        1.0000    0.93570   0.45230   0.57610   Biso      1.000     H          0.308613  
         H2        1.0000    0.56430   0.57610   0.45230   Biso      1.000     H          0.308613  
         H3        1.0000    0.06430   0.54770   0.42390   Biso      1.000     H          0.308613  
         H4        1.0000    0.43570   0.42390   0.54770   Biso      1.000     H          0.308613  
         N1        1.0000    0.67510   0.61750   0.23670   Biso      1.000     N          -0.532187           
         N2        1.0000    0.60310   0.44040   0.23900   Biso      1.000     N          -0.546955           
         N3        1.0000    0.49580   0.40010   0.39350   Biso      1.000     N          -0.488747           
         N4        1.0000    0.46520   0.21770   0.31910   Biso      1.000     N          -0.569167           
         N5        1.0000    0.64880   0.73060   0.39400   Biso      1.000     N          -0.46127  
         N6        1.0000    0.72580   0.88540   0.32220   Biso      1.000     N          -0.586832           
         N7        1.0000    0.72580   0.48570   0.09790   Biso      1.000     N          -0.493789           
         N8        1.0000    0.89690   0.23900   0.44040   Biso      1.000     N          -0.546955           
         N9        1.0000    0.91680   0.38740   0.56240   Biso      1.000     N          -0.455097           
         N10       1.0000    0.82490   0.23670   0.61750   Biso      1.000     N          -0.532187           
         N11       1.0000    0.58320   0.56240   0.38740   Biso      1.000     N          -0.455097           
         N12       1.0000    0.00420   0.39350   0.40010   Biso      1.000     N          -0.488747           
         N13       1.0000    0.03480   0.31910   0.21770   Biso      1.000     N          -0.569167           
         N14       1.0000    0.85120   0.39400   0.73060   Biso      1.000     N          -0.46127  
         N15       1.0000    0.77420   0.32220   0.88540   Biso      1.000     N          -0.586832           
         N16       1.0000    0.83410   0.60820   0.99200   Biso      1.000     N          -0.549041           
         N17       1.0000    0.33410   0.00800   0.39180   Biso      1.000     N          -0.54904  
         N18       1.0000    0.32490   0.38250   0.76330   Biso      1.000     N          -0.532187           
         N19       1.0000    0.22580   0.67780   0.11460   Biso      1.000     N          -0.586832           
         N20       1.0000    0.41680   0.43760   0.61260   Biso      1.000     N          -0.455097           
         N21       1.0000    0.77420   0.09790   0.48570   Biso      1.000     N          -0.493789           
         N22       1.0000    0.39690   0.55960   0.76100   Biso      1.000     N          -0.546955           
         N23       1.0000    0.50420   0.59990   0.60650   Biso      1.000     N          -0.488747           
         N24       1.0000    0.53480   0.78230   0.68090   Biso      1.000     N          -0.569167           
         N25       1.0000    0.35120   0.26940   0.60600   Biso      1.000     N          -0.46127  
         N26       1.0000    0.27420   0.11460   0.67780   Biso      1.000     N          -0.586832           
         N27       1.0000    0.27420   0.51430   0.90210   Biso      1.000     N          -0.493789           
         N28       1.0000    0.16590   0.39180   0.00800   Biso      1.000     N          -0.549041           
         N29       1.0000    0.08320   0.61260   0.43760   Biso      1.000     N          -0.455098           
         N30       1.0000    0.17510   0.76330   0.38250   Biso      1.000     N          -0.532188           
         N31       1.0000    0.10310   0.76100   0.55960   Biso      1.000     N          -0.546955           
         N32       1.0000    0.99580   0.60650   0.59990   Biso      1.000     N          -0.488747           
         N33       1.0000    0.96520   0.68090   0.78230   Biso      1.000     N          -0.569167           
         N34       1.0000    0.14880   0.60600   0.26940   Biso      1.000     N          -0.46127  
         N35       1.0000    0.22580   0.90210   0.51430   Biso      1.000     N          -0.493789           
         N36       1.0000    0.66590   0.99200   0.60820   Biso      1.000     N          -0.54904 