
##########################################################################
#               Crystallographic Information Format file
#               Produced by PyCifRW module
#
#  This is a CIF file.  CIF has been adopted by the International
#  Union of Crystallography as the standard for data archiving and
#  transmission.
#
#  For information on this file format, follow the CIF links at
#  http://www.iucr.org
##########################################################################

data_image0

_cell_length_a                          6.942
_cell_length_b                          12.584
_cell_length_c                          12.584
_cell_angle_alpha                       95.3528
_cell_angle_beta                        96.7152
_cell_angle_gamma                       83.2848
_symmetry_space_group_name_H-M          'P 1'
_symmetry_int_tables_number             1
loop_
  _symmetry_equiv_pos_as_xyz
         'x, y, z' 
loop_
  _atom_site_label
  _atom_site_occupancy
  _atom_site_fract_x
  _atom_site_fract_y
  _atom_site_fract_z
  _atom_site_thermal_displace_type
  _atom_site_B_iso_or_equiv
  _atom_site_type_symbol
  _atom_site_charge
         C1        1.0000    0.48300   0.29940   0.35020   Biso      1.000     C          0.530082  
         C2        1.0000    0.64990   0.52600   0.18280   Biso      1.000     C          0.576367  
         C3        1.0000    0.05230   0.66790   0.53250   Biso      1.000     C          0.567576  
         C4        1.0000    0.12340   0.67200   0.35380   Biso      1.000     C          0.56894   
         C5        1.0000    0.14990   0.81720   0.47400   Biso      1.000     C          0.576367  
         C6        1.0000    0.98300   0.64980   0.70060   Biso      1.000     C          0.530081  
         C7        1.0000    0.16200   0.65590   0.17510   Biso      1.000     C          0.538528  
         C8        1.0000    0.72100   0.03310   0.56390   Biso      1.000     C          0.515024  
         C9        1.0000    0.83800   0.34410   0.82490   Biso      1.000     C          0.538523  
         C10       1.0000    0.01700   0.35020   0.29940   Biso      1.000     C          0.530079  
         C11       1.0000    0.66200   0.82490   0.34410   Biso      1.000     C          0.538529  
         C12       1.0000    0.85010   0.18280   0.52600   Biso      1.000     C          0.576368  
         C13       1.0000    0.94770   0.33210   0.46750   Biso      1.000     C          0.567575  
         C14       1.0000    0.22100   0.43610   0.96690   Biso      1.000     C          0.515023  
         C15       1.0000    0.33800   0.17510   0.65590   Biso      1.000     C          0.538525  
         C16       1.0000    0.51700   0.70060   0.64980   Biso      1.000     C          0.530081  
         C17       1.0000    0.35010   0.47400   0.81720   Biso      1.000     C          0.576367  
         C18       1.0000    0.37660   0.35380   0.67200   Biso      1.000     C          0.568941  
         C19       1.0000    0.44770   0.53250   0.66790   Biso      1.000     C          0.567575  
         C20       1.0000    0.27900   0.96690   0.43610   Biso      1.000     C          0.515026  
         C21       1.0000    0.55230   0.46750   0.33210   Biso      1.000     C          0.567576  
         C22       1.0000    0.62340   0.64620   0.32800   Biso      1.000     C          0.568941  
         C23       1.0000    0.87660   0.32800   0.64620   Biso      1.000     C          0.568941  
         C24       1.0000    0.77900   0.56390   0.03310   Biso      1.000     C          0.515026  
         Cu1       1.0000    0.06699   0.68665   0.94217   Biso      1.000     Cu          0.870487  
         Cu2       1.0000    0.56699   0.05783   0.31335   Biso      1.000     Cu          0.870495  
         Cu3       1.0000    0.93301   0.31335   0.05783   Biso      1.000     Cu          0.87048   
         Cu4       1.0000    0.43301   0.94217   0.68665   Biso      1.000     Cu          0.870486  
         H1        1.0000    0.56430   0.57736   0.45064   Biso      1.000     H          0.307172  
         H2        1.0000    0.43570   0.42264   0.54936   Biso      1.000     H          0.307173  
         H3        1.0000    0.93570   0.45064   0.57736   Biso      1.000     H          0.307174  
         H4        1.0000    0.06430   0.54936   0.42264   Biso      1.000     H          0.307173  
         N1        1.0000    0.68300   0.90710   0.31510   Biso      1.000     N          -0.559886           
         N2        1.0000    0.63770   0.73890   0.38790   Biso      1.000     N          -0.432193           
         N3        1.0000    0.47070   0.21010   0.32210   Biso      1.000     N          -0.556761           
         N4        1.0000    0.49220   0.39790   0.39210   Biso      1.000     N          -0.478402           
         N5        1.0000    0.59040   0.44500   0.23140   Biso      1.000     N          -0.509184           
         N6        1.0000    0.97070   0.67790   0.78990   Biso      1.000     N          -0.556761           
         N7        1.0000    0.65600   0.62840   0.22560   Biso      1.000     N          -0.515649           
         N8        1.0000    0.57740   0.56574   0.38326   Biso      1.000     N          -0.454712           
         N9        1.0000    0.20880   0.91460   0.50520   Biso      1.000     N          -0.455265           
         N10       1.0000    0.18300   0.68490   0.09290   Biso      1.000     N          -0.559883           
         N11       1.0000    0.07740   0.61674   0.43426   Biso      1.000     N          -0.454712           
         N12       1.0000    0.15600   0.77440   0.37160   Biso      1.000     N          -0.515649           
         N13       1.0000    0.09040   0.76860   0.55500   Biso      1.000     N          -0.509186           
         N14       1.0000    0.99220   0.60790   0.60210   Biso      1.000     N          -0.478403           
         N15       1.0000    0.13770   0.61210   0.26110   Biso      1.000     N          -0.432192           
         N16       1.0000    0.34720   0.02130   0.38530   Biso      1.000     N          -0.512132           
         N17       1.0000    0.65280   0.97870   0.61470   Biso      1.000     N          -0.512131           
         N18       1.0000    0.79120   0.08540   0.49480   Biso      1.000     N          -0.455264           
         N19       1.0000    0.42260   0.43426   0.61674   Biso      1.000     N          -0.454712           
         N20       1.0000    0.34400   0.37160   0.77440   Biso      1.000     N          -0.515652           
         N21       1.0000    0.40960   0.55500   0.76860   Biso      1.000     N          -0.50918  
         N22       1.0000    0.50780   0.60210   0.60790   Biso      1.000     N          -0.4784   
         N23       1.0000    0.52930   0.78990   0.67790   Biso      1.000     N          -0.556758           
         N24       1.0000    0.36230   0.26110   0.61210   Biso      1.000     N          -0.432189           
         N25       1.0000    0.31700   0.09290   0.68490   Biso      1.000     N          -0.559887           
         N26       1.0000    0.70880   0.49480   0.08540   Biso      1.000     N          -0.455262           
         N27       1.0000    0.29120   0.50520   0.91460   Biso      1.000     N          -0.455261           
         N28       1.0000    0.92260   0.38326   0.56574   Biso      1.000     N          -0.454712           
         N29       1.0000    0.84400   0.22560   0.62840   Biso      1.000     N          -0.515653           
         N30       1.0000    0.90960   0.23140   0.44500   Biso      1.000     N          -0.509182           
         N31       1.0000    0.00780   0.39210   0.39790   Biso      1.000     N          -0.478401           
         N32       1.0000    0.02930   0.32210   0.21010   Biso      1.000     N          -0.556758           
         N33       1.0000    0.86230   0.38790   0.73890   Biso      1.000     N          -0.432188           
         N34       1.0000    0.81700   0.31510   0.90710   Biso      1.000     N          -0.559885           
         N35       1.0000    0.15280   0.38530   0.02130   Biso      1.000     N          -0.512127           
         N36       1.0000    0.84720   0.61470   0.97870   Biso      1.000     N          -0.512128 