
##########################################################################
#               Crystallographic Information Format file
#               Produced by PyCifRW module
#
#  This is a CIF file.  CIF has been adopted by the International
#  Union of Crystallography as the standard for data archiving and
#  transmission.
#
#  For information on this file format, follow the CIF links at
#  http://www.iucr.org
##########################################################################

data_image0

_cell_length_a                          4.9327
_cell_length_b                          12.8892
_cell_length_c                          19.808
_cell_angle_alpha                       107.046
_cell_angle_beta                        90
_cell_angle_gamma                       101.032
_symmetry_space_group_name_H-M          'P 1'
_symmetry_int_tables_number             1
loop_
  _symmetry_equiv_pos_as_xyz
         'x, y, z' 
loop_
  _atom_site_label
  _atom_site_occupancy
  _atom_site_fract_x
  _atom_site_fract_y
  _atom_site_fract_z
  _atom_site_thermal_displace_type
  _atom_site_B_iso_or_equiv
  _atom_site_type_symbol
  _atom_site_charge
         C1        1.0000    0.10500   0.63600   0.70220   Biso      1.000     C          -0.008517           
         C2        1.0000    0.89670   0.52540   0.67250   Biso      1.000     C          -0.222892           
         C3        1.0000    0.04840   0.42880   0.64320   Biso      1.000     C          -0.170051           
         C4        1.0000    0.86100   0.32000   0.60700   Biso      1.000     C          -0.212933           
         C5        1.0000    0.03250   0.23300   0.57300   Biso      1.000     C          -0.002884           
         C6        1.0000    0.99500   0.76200   0.93900   Biso      1.000     C          0.005289  
         C7        1.0000    0.96520   0.55640   0.88120   Biso      1.000     C          -0.16198  
         C8        1.0000    0.10790   0.46380   0.84990   Biso      1.000     C          -0.214261           
         C9        1.0000    0.91940   0.35480   0.81310   Biso      1.000     C          -0.004374           
         C10       1.0000    0.46900   0.36400   0.29780   Biso      1.000     C          -0.009052           
         C11       1.0000    0.15100   0.66800   0.91500   Biso      1.000     C          -0.210712           
         C12       1.0000    0.61960   0.57120   0.35680   Biso      1.000     C          -0.170989           
         C13       1.0000    0.54100   0.68000   0.39300   Biso      1.000     C          -0.212989           
         C14       1.0000    0.79950   0.76700   0.42700   Biso      1.000     C          -0.0023   
         C15       1.0000    0.23300   0.23800   0.06100   Biso      1.000     C          0.002828  
         C16       1.0000    0.48300   0.33200   0.08500   Biso      1.000     C          -0.211384           
         C17       1.0000    0.40880   0.44360   0.11880   Biso      1.000     C          -0.161731           
         C18       1.0000    0.64410   0.53620   0.15010   Biso      1.000     C          -0.214611           
         C19       1.0000    0.56460   0.64520   0.18690   Biso      1.000     C          -0.002776           
         C20       1.0000    0.37130   0.47460   0.32750   Biso      1.000     C          -0.22348  
         H1        1.0000    0.40520   0.11240   0.05990   Biso      1.000     H          0.320676  
         H2        1.0000    0.38780   0.12820   0.98900   Biso      1.000     H          0.322565  
         H3        1.0000    0.64420   0.86600   0.50600   Biso      1.000     H          0.319899  
         H4        1.0000    0.61880   0.89420   0.43920   Biso      1.000     H          0.320757  
         H5        1.0000    0.73320   0.55200   0.39070   Biso      1.000     H          0.090575  
         H6        1.0000    0.92450   0.77780   0.38940   Biso      1.000     H          0.082661  
         H7        1.0000    0.44670   0.70500   0.35820   Biso      1.000     H          0.103576  
         H8        1.0000    0.12250   0.23580   0.10240   Biso      1.000     H          0.08263   
         H9        1.0000    0.89900   0.73900   0.45920   Biso      1.000     H          0.082104  
         H10       1.0000    0.59220   0.33600   0.04360   Biso      1.000     H          0.095311  
         H11       1.0000    0.11710   0.25500   0.02650   Biso      1.000     H          0.08037   
         H12       1.0000    0.28050   0.43640   0.15640   Biso      1.000     H          0.084569  
         H13       1.0000    0.30740   0.46300   0.08260   Biso      1.000     H          0.088089  
         H14       1.0000    0.75160   0.51540   0.18460   Biso      1.000     H          0.085869  
         H15       1.0000    0.76730   0.54640   0.11210   Biso      1.000     H          0.095092  
         H16       1.0000    0.43750   0.63400   0.22400   Biso      1.000     H          0.08095   
         H17       1.0000    0.45910   0.66600   0.15200   Biso      1.000     H          0.088504  
         H18       1.0000    0.88180   0.72240   0.25480   Biso      1.000     H          0.301134  
         H19       1.0000    0.91680   0.74680   0.18630   Biso      1.000     H          0.321889  
         H20       1.0000    0.73510   0.57980   0.31720   Biso      1.000     H          0.085883  
         H21       1.0000    0.60100   0.31560   0.11930   Biso      1.000     H          0.101021  
         H22       1.0000    0.24530   0.46940   0.36580   Biso      1.000     H          0.100079  
         H23       1.0000    0.41030   0.67100   0.42980   Biso      1.000     H          0.09952   
         H24       1.0000    0.58340   0.36800   0.25730   Biso      1.000     H          0.087322  
         H25       1.0000    0.77820   0.13400   0.49400   Biso      1.000     H          0.321198  
         H26       1.0000    0.72460   0.10580   0.56080   Biso      1.000     H          0.321951  
         H27       1.0000    0.16000   0.26100   0.54080   Biso      1.000     H          0.08176   
         H28       1.0000    0.14670   0.22220   0.61060   Biso      1.000     H          0.083476  
         H29       1.0000    0.73930   0.32900   0.57020   Biso      1.000     H          0.099477  
         H30       1.0000    0.74170   0.29500   0.64180   Biso      1.000     H          0.103796  
         H31       1.0000    0.25960   0.87180   0.01100   Biso      1.000     H          0.32225   
         H32       1.0000    0.26750   0.48900   0.28960   Biso      1.000     H          0.092291  
         H33       1.0000    0.77590   0.53060   0.63420   Biso      1.000     H          0.099309  
         H34       1.0000    0.77850   0.51100   0.71040   Biso      1.000     H          0.091542  
         H35       1.0000    0.21540   0.63200   0.74270   Biso      1.000     H          0.086989  
         H36       1.0000    0.23310   0.64640   0.66530   Biso      1.000     H          0.093872  
         H37       1.0000    0.85500   0.72380   0.76090   Biso      1.000     H          0.304116  
         H38       1.0000    0.86250   0.73480   0.68840   Biso      1.000     H          0.321446  
         H39       1.0000    0.15530   0.42020   0.68280   Biso      1.000     H          0.085576  
         H40       1.0000    0.29280   0.88760   0.94010   Biso      1.000     H          0.322175  
         H41       1.0000    0.18120   0.44800   0.60930   Biso      1.000     H          0.091119  
         H42       1.0000    0.88670   0.76420   0.89760   Biso      1.000     H          0.081634  
         H43       1.0000    0.86210   0.74500   0.97350   Biso      1.000     H          0.0792    
         H44       1.0000    0.58670   0.35360   0.33470   Biso      1.000     H          0.093617  
         H45       1.0000    0.13120   0.27620   0.23910   Biso      1.000     H          0.30444   
         H46       1.0000    0.12770   0.26520   0.31160   Biso      1.000     H          0.321001  
         H47       1.0000    0.15940   0.27760   0.74520   Biso      1.000     H          0.301337  
         H48       1.0000    0.79310   0.33400   0.84800   Biso      1.000     H          0.089187  
         H49       1.0000    0.80350   0.36600   0.77600   Biso      1.000     H          0.08136   
         H50       1.0000    0.17000   0.25320   0.81370   Biso      1.000     H          0.321538  
         H51       1.0000    0.23620   0.48460   0.81540   Biso      1.000     H          0.086134  
         H52       1.0000    0.84440   0.53700   0.91740   Biso      1.000     H          0.087974  
         H53       1.0000    0.84410   0.56360   0.84360   Biso      1.000     H          0.084412  
         H54       1.0000    0.28540   0.68440   0.88070   Biso      1.000     H          0.100407  
         H55       1.0000    0.25620   0.66400   0.95640   Biso      1.000     H          0.095907  
         H56       1.0000    0.22090   0.45360   0.88790   Biso      1.000     H          0.094877  
         N1        1.0000    0.79160   0.73920   0.21990   Biso      1.000     N          -0.601659           
         N2        1.0000    0.97060   0.73320   0.72580   Biso      1.000     N          -0.607088           
         N3        1.0000    0.29160   0.12720   0.02860   Biso      1.000     N          -0.594857           
         N4        1.0000    0.73630   0.87460   0.46700   Biso      1.000     N          -0.600485           
         N5        1.0000    0.23740   0.26680   0.27420   Biso      1.000     N          -0.606814           
         N6        1.0000    0.05240   0.26080   0.78010   Biso      1.000     N          -0.601181           
         N7        1.0000    0.16440   0.87280   0.97140   Biso      1.000     N          -0.596233           
         N8        1.0000    0.86170   0.12540   0.53300   Biso      1.000     N          -0.604121           
         O1        1.0000    0.70780   0.13560   0.19540   Biso      1.000     O          -0.856435           
         O2        1.0000    0.69680   0.06960   0.82180   Biso      1.000     O          -0.849066           
         O3        1.0000    0.93680   0.97760   0.34220   Biso      1.000     O          -0.826187           
         O4        1.0000    0.32630   0.00860   0.42820   Biso      1.000     O          -0.804895           
         O5        1.0000    0.32020   0.87440   0.30470   Biso      1.000     O          -0.852956           
         O6        1.0000    0.39660   0.08320   0.32460   Biso      1.000     O          -0.845282           
         O7        1.0000    0.06560   0.96720   0.84140   Biso      1.000     O          -0.828313           
         O8        1.0000    0.57220   0.86440   0.80460   Biso      1.000     O          -0.85749  
         O9        1.0000    0.95920   0.02240   0.65780   Biso      1.000     O          -0.825828           
         O10       1.0000    0.69140   0.00080   0.92640   Biso      1.000     O          -0.794605           
         O11       1.0000    0.69060   0.99920   0.07360   Biso      1.000     O          -0.794507           
         O12       1.0000    0.31770   0.99140   0.57180   Biso      1.000     O          -0.805096           
         O13       1.0000    0.09840   0.03280   0.15860   Biso      1.000     O          -0.827928           
         O14       1.0000    0.31340   0.91680   0.67540   Biso      1.000     O          -0.845924           
         O15       1.0000    0.62720   0.93040   0.17820   Biso      1.000     O          -0.849328           
         O16       1.0000    0.44580   0.12560   0.69530   Biso      1.000     O          -0.852415           
         P1        1.0000    0.78419   0.02538   0.15126   Biso      1.000     P          1.534839  
         P2        1.0000    0.24606   0.98432   0.34901   Biso      1.000     P          1.549459  
         P3        1.0000    0.75881   0.97462   0.84874   Biso      1.000     P          1.535292  
         P4        1.0000    0.26174   0.01568   0.65099   Biso      1.000     P          1.549673  
         Zn1       1.0000    0.07010   0.00000   0.50000   Biso      1.000     Zn          0.893473  
         Zn2       1.0000    0.95680   0.00000   0.00000   Biso      1.000     Zn          0.876318  
         Zn3       1.0000    0.67626   0.88852   0.26317   Biso      1.000     Zn          0.977865  
         Zn4       1.0000    0.35160   0.11780   0.23723   Biso      1.000     Zn          0.988772  
         Zn5       1.0000    0.78774   0.11148   0.73683   Biso      1.000     Zn          0.977142  
         Zn6       1.0000    0.23380   0.88220   0.76277   Biso      1.000     Zn          0.989249 