
##########################################################################
#               Crystallographic Information Format file
#               Produced by PyCifRW module
#
#  This is a CIF file.  CIF has been adopted by the International
#  Union of Crystallography as the standard for data archiving and
#  transmission.
#
#  For information on this file format, follow the CIF links at
#  http://www.iucr.org
##########################################################################

data_image0

_cell_length_a                          11.9669
_cell_length_b                          11.9669
_cell_length_c                          19.0262
_cell_angle_alpha                       102.448
_cell_angle_beta                        102.448
_cell_angle_gamma                       91.7087
_symmetry_space_group_name_H-M          'P 1'
_symmetry_int_tables_number             1
loop_
  _symmetry_equiv_pos_as_xyz
         'x, y, z' 
loop_
  _atom_site_label
  _atom_site_occupancy
  _atom_site_fract_x
  _atom_site_fract_y
  _atom_site_fract_z
  _atom_site_thermal_displace_type
  _atom_site_B_iso_or_equiv
  _atom_site_type_symbol
  _atom_site_charge
         C1        1.0000    0.55810   0.77690   0.88890   Biso      1.000     C          0.069671  
         C2        1.0000    0.59180   0.56380   0.68930   Biso      1.000     C          -0.153289           
         C3        1.0000    0.71210   0.62690   0.69750   Biso      1.000     C          -0.246637           
         C4        1.0000    0.79250   0.54270   0.66820   Biso      1.000     C          0.19207   
         C5        1.0000    0.84490   0.47550   0.70710   Biso      1.000     C          -0.20359100000000002          
         C6        1.0000    0.91600   0.39120   0.68010   Biso      1.000     C          0.102022  
         C7        1.0000    0.88490   0.45630   0.57390   Biso      1.000     C          0.07309500000000001           
         C8        1.0000    0.81680   0.53420   0.60060   Biso      1.000     C          -0.197256           
         C9        1.0000    0.32320   0.50900   0.62220   Biso      1.000     C          -0.22175300000000003          
         C10       1.0000    0.22310   0.44190   0.61110   Biso      1.000     C          0.069672  
         C11       1.0000    0.17020   0.04680   0.77910   Biso      1.000     C          -0.142751           
         C12       1.0000    0.49100   0.67680   0.87780   Biso      1.000     C          -0.221748           
         C13       1.0000    0.46580   0.18320   0.89940   Biso      1.000     C          -0.197293           
         C14       1.0000    0.54370   0.11510   0.92610   Biso      1.000     C          0.07312   
         C15       1.0000    0.60880   0.08400   0.81990   Biso      1.000     C          0.102028  
         C16       1.0000    0.52450   0.15510   0.79290   Biso      1.000     C          -0.20364200000000002          
         C17       1.0000    0.45730   0.20750   0.83180   Biso      1.000     C          0.192126  
         C18       1.0000    0.37310   0.28790   0.80250   Biso      1.000     C          -0.24664  
         C19       1.0000    0.43620   0.40820   0.81070   Biso      1.000     C          -0.153288           
         C20       1.0000    0.47250   0.47030   0.89030   Biso      1.000     C          -0.245493           
         C21       1.0000    0.54330   0.58330   0.90020   Biso      1.000     C          0.188108  
         C22       1.0000    0.65680   0.60240   0.93250   Biso      1.000     C          -0.21547199999999997          
         C23       1.0000    0.71530   0.70570   0.94240   Biso      1.000     C          0.11887400000000001           
         C24       1.0000    0.04440   0.73440   0.81610   Biso      1.000     C          -0.235246           
         C25       1.0000    0.10810   0.67730   0.76840   Biso      1.000     C          0.340278  
         C26       1.0000    0.09540   0.69600   0.69800   Biso      1.000     C          -0.292344           
         C27       1.0000    0.01550   0.76930   0.67300   Biso      1.000     C          0.010728  
         C28       1.0000    0.95320   0.82980   0.72090   Biso      1.000     C          -0.142753           
         C29       1.0000    0.52970   0.52750   0.60970   Biso      1.000     C          -0.24549200000000002          
         C30       1.0000    0.96730   0.81270   0.79270   Biso      1.000     C          -0.00064  
         C31       1.0000    0.41670   0.45670   0.59980   Biso      1.000     C          0.188105  
         C32       1.0000    0.29430   0.28470   0.55760   Biso      1.000     C          0.118861  
         C33       1.0000    0.18730   0.03270   0.70730   Biso      1.000     C          -0.0006519999999999999        
         C34       1.0000    0.21660   0.99960   0.90520   Biso      1.000     C          0.5596869999999999  
         C35       1.0000    0.12430   0.09770   0.65580   Biso      1.000     C          0.563819  
         C36       1.0000    0.44190   0.22310   0.11110   Biso      1.000     C          0.069672  
         C37       1.0000    0.50900   0.32320   0.12220   Biso      1.000     C          -0.22174899999999997          
         C38       1.0000    0.53420   0.81680   0.10060   Biso      1.000     C          -0.197293           
         C39       1.0000    0.45630   0.88490   0.07390   Biso      1.000     C          0.073121  
         C40       1.0000    0.39120   0.91600   0.18010   Biso      1.000     C          0.102029  
         C41       1.0000    0.47550   0.84490   0.20710   Biso      1.000     C          -0.20364100000000002          
         C42       1.0000    0.54270   0.79250   0.16820   Biso      1.000     C          0.192127  
         C43       1.0000    0.62690   0.71210   0.19750   Biso      1.000     C          -0.24664  
         C44       1.0000    0.56380   0.59180   0.18930   Biso      1.000     C          -0.153288           
         C45       1.0000    0.52750   0.52970   0.10970   Biso      1.000     C          -0.24549200000000002          
         C46       1.0000    0.45670   0.41670   0.09980   Biso      1.000     C          0.188108  
         C47       1.0000    0.34320   0.39760   0.06750   Biso      1.000     C          -0.215473           
         C48       1.0000    0.28470   0.29430   0.05760   Biso      1.000     C          0.118876  
         C49       1.0000    0.95560   0.26560   0.18390   Biso      1.000     C          -0.235246           
         C50       1.0000    0.89190   0.32270   0.23160   Biso      1.000     C          0.340275  
         C51       1.0000    0.90460   0.30400   0.30200   Biso      1.000     C          -0.292348           
         C52       1.0000    0.98450   0.23070   0.32700   Biso      1.000     C          0.010731999999999998          
         C53       1.0000    0.04680   0.17020   0.27910   Biso      1.000     C          -0.142746           
         C54       1.0000    0.03270   0.18730   0.20730   Biso      1.000     C          -0.000659           
         C55       1.0000    0.99960   0.21660   0.40520   Biso      1.000     C          0.559669  
         C56       1.0000    0.09770   0.12430   0.15580   Biso      1.000     C          0.563809  
         C57       1.0000    0.30400   0.90460   0.80200   Biso      1.000     C          -0.29235  
         C58       1.0000    0.32270   0.89190   0.73160   Biso      1.000     C          0.340281  
         C59       1.0000    0.26560   0.95560   0.68390   Biso      1.000     C          -0.235248           
         C60       1.0000    0.39760   0.34320   0.56750   Biso      1.000     C          -0.215461           
         C61       1.0000    0.00040   0.78340   0.59480   Biso      1.000     C          0.5596810000000001  
         C62       1.0000    0.23070   0.98450   0.82700   Biso      1.000     C          0.010740000000000001          
         C63       1.0000    0.77690   0.55810   0.38890   Biso      1.000     C          0.069674  
         C64       1.0000    0.90230   0.87570   0.84420   Biso      1.000     C          0.563822  
         C65       1.0000    0.87570   0.90230   0.34420   Biso      1.000     C          0.563818  
         C66       1.0000    0.78340   0.00040   0.09480   Biso      1.000     C          0.5596720000000001  
         C67       1.0000    0.81270   0.96730   0.29270   Biso      1.000     C          -0.000646           
         C68       1.0000    0.82980   0.95320   0.22090   Biso      1.000     C          -0.142747           
         C69       1.0000    0.76930   0.01550   0.17300   Biso      1.000     C          0.010723  
         C70       1.0000    0.69600   0.09540   0.19800   Biso      1.000     C          -0.292346           
         C71       1.0000    0.67730   0.10810   0.26840   Biso      1.000     C          0.34028200000000003           
         C72       1.0000    0.73440   0.04440   0.31610   Biso      1.000     C          -0.23524499999999998          
         C73       1.0000    0.60240   0.65680   0.43250   Biso      1.000     C          -0.21549000000000001          
         C74       1.0000    0.70570   0.71530   0.44240   Biso      1.000     C          0.118876  
         C75       1.0000    0.47030   0.47250   0.39030   Biso      1.000     C          -0.24549200000000002          
         C76       1.0000    0.40820   0.43620   0.31070   Biso      1.000     C          -0.153288           
         C77       1.0000    0.28790   0.37310   0.30250   Biso      1.000     C          -0.246635           
         C78       1.0000    0.20750   0.45730   0.33180   Biso      1.000     C          0.19207   
         C79       1.0000    0.15510   0.52450   0.29290   Biso      1.000     C          -0.20359000000000002          
         C80       1.0000    0.08400   0.60880   0.31990   Biso      1.000     C          0.102024  
         C81       1.0000    0.11510   0.54370   0.42610   Biso      1.000     C          0.07309600000000001           
         C82       1.0000    0.18320   0.46580   0.39940   Biso      1.000     C          -0.197252           
         C83       1.0000    0.67680   0.49100   0.37780   Biso      1.000     C          -0.22174899999999997          
         C84       1.0000    0.58330   0.54330   0.40020   Biso      1.000     C          0.188124  
         Cd1       1.0000    0.02739   0.22793   0.55640   Biso      1.000     Cd          0.8315299999999999  
         Cd2       1.0000    0.77207   0.97261   0.94360   Biso      1.000     Cd          0.831536  
         Cd3       1.0000    0.22793   0.02739   0.05640   Biso      1.000     Cd          0.831536  
         Cd4       1.0000    0.97261   0.77207   0.44360   Biso      1.000     Cd          0.831535  
         H1        1.0000    0.54450   0.10010   0.97320   Biso      1.000     H          0.095351  
         H2        1.0000    0.57710   0.21790   0.25580   Biso      1.000     H          0.380639  
         H3        1.0000    0.90120   0.88240   0.70470   Biso      1.000     H          0.134722  
         H4        1.0000    0.14120   0.65860   0.66640   Biso      1.000     H          0.12336400000000002           
         H5        1.0000    0.05290   0.72070   0.86430   Biso      1.000     H          0.143951  
         H6        1.0000    0.79420   0.71480   0.96670   Biso      1.000     H          0.105181  
         H7        1.0000    0.42290   0.78210   0.74420   Biso      1.000     H          0.380639  
         H8        1.0000    0.87130   0.03950   0.48840   Biso      1.000     H          0.37534   
         H9        1.0000    0.16060   0.47840   0.62730   Biso      1.000     H          0.074048  
         H10       1.0000    0.32880   0.58860   0.64450   Biso      1.000     H          0.12486099999999999           
         H11       1.0000    0.78440   0.58520   0.57120   Biso      1.000     H          0.115479  
         H12       1.0000    0.89990   0.45550   0.52680   Biso      1.000     H          0.095353  
         H13       1.0000    0.95150   0.34350   0.71100   Biso      1.000     H          0.11028299999999999           
         H14       1.0000    0.83540   0.48280   0.75620   Biso      1.000     H          0.12225599999999999           
         H15       1.0000    0.74510   0.66270   0.75020   Biso      1.000     H          0.12423699999999999           
         H16       1.0000    0.70330   0.68830   0.66970   Biso      1.000     H          0.126908  
         H17       1.0000    0.12870   0.96050   0.51160   Biso      1.000     H          0.375349  
         H18       1.0000    0.54520   0.61580   0.71700   Biso      1.000     H          0.089404  
         H19       1.0000    0.83940   0.52160   0.37270   Biso      1.000     H          0.07405   
         H20       1.0000    0.21560   0.41480   0.42880   Biso      1.000     H          0.115479  
         H21       1.0000    0.21790   0.57710   0.75580   Biso      1.000     H          0.38063800000000003           
         H22       1.0000    0.88240   0.90120   0.20470   Biso      1.000     H          0.134716  
         H23       1.0000    0.65860   0.14120   0.16640   Biso      1.000     H          0.12336400000000002           
         H24       1.0000    0.72070   0.05290   0.36430   Biso      1.000     H          0.143948  
         H25       1.0000    0.71480   0.79420   0.46670   Biso      1.000     H          0.10518499999999999           
         H26       1.0000    0.54180   0.69660   0.44870   Biso      1.000     H          0.133796  
         H27       1.0000    0.42050   0.51870   0.41870   Biso      1.000     H          0.113579  
         H28       1.0000    0.48610   0.40350   0.41050   Biso      1.000     H          0.1235    
         H29       1.0000    0.39810   0.50450   0.28920   Biso      1.000     H          0.094198  
         H30       1.0000    0.45480   0.38420   0.28300   Biso      1.000     H          0.089404  
         H31       1.0000    0.29670   0.31170   0.33030   Biso      1.000     H          0.126908  
         H32       1.0000    0.25490   0.33730   0.24980   Biso      1.000     H          0.12423800000000002           
         H33       1.0000    0.16460   0.51720   0.24380   Biso      1.000     H          0.12225499999999999           
         H34       1.0000    0.04850   0.65650   0.28900   Biso      1.000     H          0.11028199999999999           
         H35       1.0000    0.10010   0.54450   0.47320   Biso      1.000     H          0.095354  
         H36       1.0000    0.67120   0.41140   0.35550   Biso      1.000     H          0.12486300000000002           
         H37       1.0000    0.60190   0.49550   0.71080   Biso      1.000     H          0.094198  
         H38       1.0000    0.51390   0.59650   0.58950   Biso      1.000     H          0.123499  
         H39       1.0000    0.57950   0.48130   0.58130   Biso      1.000     H          0.113578  
         H40       1.0000    0.20580   0.28520   0.03330   Biso      1.000     H          0.10518599999999999           
         H41       1.0000    0.94710   0.27930   0.13570   Biso      1.000     H          0.14394300000000002           
         H42       1.0000    0.85880   0.34140   0.33360   Biso      1.000     H          0.12336199999999999           
         H43       1.0000    0.09880   0.11760   0.29530   Biso      1.000     H          0.134717  
         H44       1.0000    0.52160   0.83940   0.87270   Biso      1.000     H          0.07405   
         H45       1.0000    0.41140   0.67120   0.85550   Biso      1.000     H          0.12486199999999999           
         H46       1.0000    0.69660   0.54180   0.94870   Biso      1.000     H          0.13379000000000002           
         H47       1.0000    0.51870   0.42050   0.91870   Biso      1.000     H          0.113579  
         H48       1.0000    0.40350   0.48610   0.91050   Biso      1.000     H          0.1235    
         H49       1.0000    0.50450   0.39810   0.78920   Biso      1.000     H          0.094198  
         H50       1.0000    0.38420   0.45480   0.78300   Biso      1.000     H          0.089404  
         H51       1.0000    0.31170   0.29670   0.83030   Biso      1.000     H          0.126909  
         H52       1.0000    0.33730   0.25490   0.74980   Biso      1.000     H          0.12423800000000002           
         H53       1.0000    0.51720   0.16460   0.74380   Biso      1.000     H          0.12225899999999999           
         H54       1.0000    0.65650   0.04850   0.78900   Biso      1.000     H          0.110284  
         H55       1.0000    0.30340   0.45820   0.05130   Biso      1.000     H          0.133795  
         H56       1.0000    0.48130   0.57950   0.08130   Biso      1.000     H          0.113579  
         H57       1.0000    0.59650   0.51390   0.08950   Biso      1.000     H          0.1235    
         H58       1.0000    0.49550   0.60190   0.21080   Biso      1.000     H          0.094198  
         H59       1.0000    0.45820   0.30340   0.55130   Biso      1.000     H          0.13379100000000002           
         H60       1.0000    0.28520   0.20580   0.53330   Biso      1.000     H          0.10518399999999999           
         H61       1.0000    0.27930   0.94710   0.63570   Biso      1.000     H          0.143949  
         H62       1.0000    0.34140   0.85880   0.83360   Biso      1.000     H          0.123365  
         H63       1.0000    0.11760   0.09880   0.79530   Biso      1.000     H          0.134723  
         H64       1.0000    0.78210   0.42290   0.24420   Biso      1.000     H          0.380637  
         H65       1.0000    0.03950   0.87130   0.98840   Biso      1.000     H          0.375347  
         H66       1.0000    0.41480   0.21560   0.92880   Biso      1.000     H          0.11548199999999999           
         H67       1.0000    0.47840   0.16060   0.12730   Biso      1.000     H          0.07405   
         H68       1.0000    0.58520   0.78440   0.07120   Biso      1.000     H          0.11548199999999999           
         H69       1.0000    0.45550   0.89990   0.02680   Biso      1.000     H          0.09535199999999999           
         H70       1.0000    0.96050   0.12870   0.01160   Biso      1.000     H          0.375337  
         H71       1.0000    0.48280   0.83540   0.25620   Biso      1.000     H          0.12226   
         H72       1.0000    0.66270   0.74510   0.25020   Biso      1.000     H          0.12423699999999999           
         H73       1.0000    0.68830   0.70330   0.16970   Biso      1.000     H          0.126908  
         H74       1.0000    0.61580   0.54520   0.21700   Biso      1.000     H          0.089404  
         H75       1.0000    0.58860   0.32880   0.14450   Biso      1.000     H          0.12486199999999999           
         H76       1.0000    0.34350   0.95150   0.21100   Biso      1.000     H          0.110285  
         N1        1.0000    0.37780   0.93380   0.11200   Biso      1.000     N          -0.227356           
         N2        1.0000    0.93380   0.37780   0.61200   Biso      1.000     N          -0.227354           
         N3        1.0000    0.79410   0.66870   0.42010   Biso      1.000     N          -0.218743           
         N4        1.0000    0.06620   0.62220   0.38800   Biso      1.000     N          -0.22735500000000003          
         N5        1.0000    0.66870   0.79410   0.92010   Biso      1.000     N          -0.218744           
         N6        1.0000    0.62220   0.06620   0.88800   Biso      1.000     N          -0.227359           
         N7        1.0000    0.33130   0.20590   0.07990   Biso      1.000     N          -0.218741           
         N8        1.0000    0.20590   0.33130   0.57990   Biso      1.000     N          -0.218743           
         O1        1.0000    0.06960   0.14820   0.42640   Biso      1.000     O          -0.525651           
         O2        1.0000    0.05570   0.16770   0.67740   Biso      1.000     O          -0.534225           
         O3        1.0000    0.86690   0.09030   0.52560   Biso      1.000     O          -0.513971           
         O4        1.0000    0.27400   0.94680   0.94710   Biso      1.000     O          -0.5423060000000001           
         O5        1.0000    0.14820   0.06960   0.92640   Biso      1.000     O          -0.525647           
         O6        1.0000    0.16770   0.05570   0.17740   Biso      1.000     O          -0.534226           
         O7        1.0000    0.09030   0.86690   0.02560   Biso      1.000     O          -0.5139819999999999           
         O8        1.0000    0.08300   0.14080   0.09140   Biso      1.000     O          -0.533554           
         O9        1.0000    0.14080   0.08300   0.59140   Biso      1.000     O          -0.533573           
         O10       1.0000    0.81360   0.39580   0.20950   Biso      1.000     O          -0.5107010000000001           
         O11       1.0000    0.18640   0.60420   0.79050   Biso      1.000     O          -0.5106970000000001           
         O12       1.0000    0.72600   0.05320   0.05290   Biso      1.000     O          -0.5422680000000001           
         O13       1.0000    0.85180   0.93040   0.07360   Biso      1.000     O          -0.525604           
         O14       1.0000    0.83230   0.94430   0.82260   Biso      1.000     O          -0.534223           
         O15       1.0000    0.90970   0.13310   0.97440   Biso      1.000     O          -0.514007           
         O16       1.0000    0.91700   0.85920   0.90860   Biso      1.000     O          -0.533606           
         O17       1.0000    0.60420   0.18640   0.29050   Biso      1.000     O          -0.5107   
         O18       1.0000    0.05320   0.72600   0.55290   Biso      1.000     O          -0.542275           
         O19       1.0000    0.93040   0.85180   0.57360   Biso      1.000     O          -0.525624           
         O20       1.0000    0.94430   0.83230   0.32260   Biso      1.000     O          -0.534224           
         O21       1.0000    0.13310   0.90970   0.47440   Biso      1.000     O          -0.513983           
         O22       1.0000    0.85920   0.91700   0.40860   Biso      1.000     O          -0.533589           
         O23       1.0000    0.94680   0.27400   0.44710   Biso      1.000     O          -0.5422859999999999           
         O24       1.0000    0.39580   0.81360   0.70950   Biso      1.000     O          -0.5107 