
##########################################################################
#               Crystallographic Information Format file
#               Produced by PyCifRW module
#
#  This is a CIF file.  CIF has been adopted by the International
#  Union of Crystallography as the standard for data archiving and
#  transmission.
#
#  For information on this file format, follow the CIF links at
#  http://www.iucr.org
##########################################################################

data_image0

_cell_length_a                          9.141
_cell_length_b                          9.667
_cell_length_c                          13.855
_cell_angle_alpha                       100.83
_cell_angle_beta                        90.81
_cell_angle_gamma                       100.94
_symmetry_space_group_name_H-M          'P 1'
_symmetry_int_tables_number             1
loop_
  _symmetry_equiv_pos_as_xyz
         'x, y, z' 
loop_
  _atom_site_label
  _atom_site_occupancy
  _atom_site_fract_x
  _atom_site_fract_y
  _atom_site_fract_z
  _atom_site_thermal_displace_type
  _atom_site_B_iso_or_equiv
  _atom_site_type_symbol
  _atom_site_charge
         C1        1.0000    0.69740   0.85390   0.35860   Biso      1.000     C          0.660803  
         C2        1.0000    0.06400   0.26530   0.39680   Biso      1.000     C          0.691112  
         C3        1.0000    0.13270   0.42320   0.41480   Biso      1.000     C          -0.408161           
         C4        1.0000    0.37370   0.59490   0.41680   Biso      1.000     C          -0.257306           
         C5        1.0000    0.29360   0.45590   0.38860   Biso      1.000     C          0.18941   
         C6        1.0000    0.36370   0.35330   0.33800   Biso      1.000     C          -0.267102           
         C7        1.0000    0.51040   0.38860   0.31610   Biso      1.000     C          0.160946  
         C8        1.0000    0.58720   0.52640   0.34570   Biso      1.000     C          -0.24543299999999998          
         C9        1.0000    0.52090   0.63260   0.39590   Biso      1.000     C          0.197898  
         C10       1.0000    0.60750   0.78250   0.43170   Biso      1.000     C          -0.413426           
         C11       1.0000    0.66030   0.20200   0.26290   Biso      1.000     C          0.614139  
         C12       1.0000    0.94860   0.23490   0.66430   Biso      1.000     C          0.09513300000000001           
         C13       1.0000    0.73380   0.17710   0.72740   Biso      1.000     C          -0.101534           
         C14       1.0000    0.07330   0.59960   0.90770   Biso      1.000     C          -0.149648           
         C15       1.0000    0.04160   0.47350   0.83800   Biso      1.000     C          -0.166946           
         C16       1.0000    0.89470   0.41440   0.80510   Biso      1.000     C          0.173732  
         C17       1.0000    0.54780   0.27290   0.22100   Biso      1.000     C          -0.412867           
         C18       1.0000    0.09440   0.98500   0.12160   Biso      1.000     C          -0.041413           
         C19       1.0000    0.11580   0.89350   0.03860   Biso      1.000     C          -0.10269400000000001          
         C20       1.0000    0.89400   0.82270   0.09190   Biso      1.000     C          0.087163  
         C21       1.0000    0.95730   0.66550   0.94300   Biso      1.000     C          0.177044  
         C22       1.0000    0.75210   0.07130   0.65260   Biso      1.000     C          -0.030918           
         C23       1.0000    0.45220   0.72710   0.77900   Biso      1.000     C          -0.413787           
         C24       1.0000    0.90560   0.01500   0.87840   Biso      1.000     C          -0.042651999999999995         
         C25       1.0000    0.88420   0.10650   0.96140   Biso      1.000     C          -0.101611           
         C26       1.0000    0.33970   0.79800   0.73710   Biso      1.000     C          0.614233  
         C27       1.0000    0.93600   0.73470   0.60320   Biso      1.000     C          0.68777   
         C28       1.0000    0.86730   0.57680   0.58520   Biso      1.000     C          -0.406736           
         C29       1.0000    0.62630   0.40510   0.58320   Biso      1.000     C          -0.255877           
         C30       1.0000    0.70640   0.54410   0.61140   Biso      1.000     C          0.18941   
         C31       1.0000    0.63630   0.64670   0.66200   Biso      1.000     C          -0.26672399999999996          
         C32       1.0000    0.48960   0.61140   0.68390   Biso      1.000     C          0.16078599999999998           
         C33       1.0000    0.41280   0.47360   0.65430   Biso      1.000     C          -0.245398           
         C34       1.0000    0.47910   0.36740   0.60410   Biso      1.000     C          0.197968  
         C35       1.0000    0.39250   0.21750   0.56830   Biso      1.000     C          -0.414945           
         C36       1.0000    0.30260   0.14610   0.64140   Biso      1.000     C          0.6605310000000001  
         C37       1.0000    0.05140   0.76510   0.33570   Biso      1.000     C          0.09456   
         C38       1.0000    0.24790   0.92870   0.34740   Biso      1.000     C          -0.030948000000000003         
         C39       1.0000    0.26620   0.82290   0.27260   Biso      1.000     C          -0.100569           
         C40       1.0000    0.92670   0.40040   0.09230   Biso      1.000     C          -0.150118           
         C41       1.0000    0.95840   0.52650   0.16200   Biso      1.000     C          -0.166248           
         C42       1.0000    0.10530   0.58560   0.19490   Biso      1.000     C          0.174224  
         C43       1.0000    0.21940   0.51740   0.16080   Biso      1.000     C          -0.146302           
         C44       1.0000    0.18760   0.39030   0.09170   Biso      1.000     C          -0.164463           
         C45       1.0000    0.04270   0.33450   0.05700   Biso      1.000     C          0.176473  
         C46       1.0000    0.10600   0.17730   0.90810   Biso      1.000     C          0.08482   
         C47       1.0000    0.81240   0.60970   0.90830   Biso      1.000     C          -0.16462000000000002          
         C48       1.0000    0.78060   0.48260   0.83920   Biso      1.000     C          -0.146674           
         Co1       1.0000    0.84945   0.03944   0.26753   Biso      1.000     Co          0.8498129999999999  
         Co2       1.0000    0.15055   0.96056   0.73247   Biso      1.000     Co          0.781203  
         Co3       1.0000    0.00000   0.00000   0.50000   Biso      1.000     Co          0.755857  
         H1        1.0000    0.87390   0.53630   0.51620   Biso      1.000     H          0.15128699999999998           
         H2        1.0000    0.68710   0.54880   0.33140   Biso      1.000     H          0.115096  
         H3        1.0000    0.53760   0.84240   0.45770   Biso      1.000     H          0.157226  
         H4        1.0000    0.67470   0.78060   0.48600   Biso      1.000     H          0.152004  
         H5        1.0000    0.04160   0.28630   0.65330   Biso      1.000     H          0.10436   
         H6        1.0000    0.68330   0.98640   0.63110   Biso      1.000     H          0.125272  
         H7        1.0000    0.65160   0.17880   0.76610   Biso      1.000     H          0.139201  
         H8        1.0000    0.92520   0.52950   0.62320   Biso      1.000     H          0.138254  
         H9        1.0000    0.68270   0.44360   0.81590   Biso      1.000     H          0.13488499999999998           
         H10       1.0000    0.31160   0.25930   0.31840   Biso      1.000     H          0.11316099999999998           
         H11       1.0000    0.73620   0.65690   0.93100   Biso      1.000     H          0.13112100000000002           
         H12       1.0000    0.79910   0.76950   0.09630   Biso      1.000     H          0.113239  
         H13       1.0000    0.20010   0.89940   0.00150   Biso      1.000     H          0.144065  
         H14       1.0000    0.16310   0.06610   0.15160   Biso      1.000     H          0.118645  
         H15       1.0000    0.58940   0.31620   0.16800   Biso      1.000     H          0.15395699999999998           
         H16       1.0000    0.45960   0.20270   0.19700   Biso      1.000     H          0.159082  
         H17       1.0000    0.11830   0.42860   0.81330   Biso      1.000     H          0.129598  
         H18       1.0000    0.32660   0.66500   0.45100   Biso      1.000     H          0.126684  
         H19       1.0000    0.17120   0.63960   0.93050   Biso      1.000     H          0.130322  
         H20       1.0000    0.07480   0.47050   0.37680   Biso      1.000     H          0.138297  
         H21       1.0000    0.12610   0.46370   0.48380   Biso      1.000     H          0.15081   
         H22       1.0000    0.67340   0.33500   0.54900   Biso      1.000     H          0.127059  
         H23       1.0000    0.68840   0.74070   0.68160   Biso      1.000     H          0.113274  
         H24       1.0000    0.31290   0.45120   0.66860   Biso      1.000     H          0.115157  
         H25       1.0000    0.46240   0.15760   0.54230   Biso      1.000     H          0.157476  
         H26       1.0000    0.32530   0.21940   0.51400   Biso      1.000     H          0.15240499999999998           
         H27       1.0000    0.95840   0.71370   0.34670   Biso      1.000     H          0.10442   
         H28       1.0000    0.34840   0.82120   0.23390   Biso      1.000     H          0.139464  
         H29       1.0000    0.31670   0.01360   0.36890   Biso      1.000     H          0.12541300000000002           
         H30       1.0000    0.88170   0.57140   0.18670   Biso      1.000     H          0.12991   
         H31       1.0000    0.31730   0.55640   0.18410   Biso      1.000     H          0.13510899999999998           
         H32       1.0000    0.26380   0.34310   0.06900   Biso      1.000     H          0.131226  
         H33       1.0000    0.20090   0.23050   0.90370   Biso      1.000     H          0.11421500000000001           
         H34       1.0000    0.79990   0.10060   0.99850   Biso      1.000     H          0.14488499999999999           
         H35       1.0000    0.83690   0.93390   0.84840   Biso      1.000     H          0.11995   
         H36       1.0000    0.41060   0.68380   0.83200   Biso      1.000     H          0.15448299999999998           
         H37       1.0000    0.54040   0.79730   0.80300   Biso      1.000     H          0.159441  
         H38       1.0000    0.82880   0.36040   0.06950   Biso      1.000     H          0.130462  
         N1        1.0000    0.01260   0.21020   0.97990   Biso      1.000     N          0.006418000000000001          
         N2        1.0000    0.11210   0.89190   0.38730   Biso      1.000     N          -0.242258           
         N3        1.0000    0.13980   0.71840   0.26470   Biso      1.000     N          0.008376999999999999          
         N4        1.0000    0.04490   0.06020   0.84520   Biso      1.000     N          -0.26751199999999997          
         N5        1.0000    0.95510   0.93980   0.15480   Biso      1.000     N          -0.292431           
         N6        1.0000    0.86020   0.28160   0.73530   Biso      1.000     N          0.008081999999999999          
         N7        1.0000    0.98740   0.78980   0.02010   Biso      1.000     N          0.006261  
         N8        1.0000    0.88790   0.10810   0.61270   Biso      1.000     N          -0.240781           
         O1        1.0000    0.31100   0.90800   0.81810   Biso      1.000     O          -0.6440359999999999           
         O2        1.0000    0.80600   0.95990   0.39200   Biso      1.000     O          -0.5978060000000001           
         O3        1.0000    0.66920   0.81900   0.26920   Biso      1.000     O          -0.568204           
         O4        1.0000    0.07460   0.19940   0.46500   Biso      1.000     O          -0.550389           
         O5        1.0000    0.00240   0.21150   0.31390   Biso      1.000     O          -0.569788           
         O6        1.0000    0.68900   0.09200   0.18190   Biso      1.000     O          -0.6616489999999999           
         O7        1.0000    0.70030   0.22530   0.34530   Biso      1.000     O          -0.444358           
         O8        1.0000    0.19400   0.04010   0.60800   Biso      1.000     O          -0.588605           
         O9        1.0000    0.33080   0.18100   0.73080   Biso      1.000     O          -0.560491           
         O10       1.0000    0.92540   0.80060   0.53500   Biso      1.000     O          -0.549308           
         O11       1.0000    0.99760   0.78850   0.68610   Biso      1.000     O          -0.556888           
         O12       1.0000    0.29970   0.77470   0.65470   Biso      1.000     O          -0.435454 