
##########################################################################
#               Crystallographic Information Format file
#               Produced by PyCifRW module
#
#  This is a CIF file.  CIF has been adopted by the International
#  Union of Crystallography as the standard for data archiving and
#  transmission.
#
#  For information on this file format, follow the CIF links at
#  http://www.iucr.org
##########################################################################

data_image0

_cell_length_a                          7.1491
_cell_length_b                          10.7063
_cell_length_c                          17.1197
_cell_angle_alpha                       97.097
_cell_angle_beta                        90
_cell_angle_gamma                       90
_symmetry_space_group_name_H-M          'P 1'
_symmetry_int_tables_number             1
loop_
  _symmetry_equiv_pos_as_xyz
         'x, y, z' 
loop_
  _atom_site_label
  _atom_site_occupancy
  _atom_site_fract_x
  _atom_site_fract_y
  _atom_site_fract_z
  _atom_site_thermal_displace_type
  _atom_site_B_iso_or_equiv
  _atom_site_type_symbol
  _atom_site_charge
         C1        1.0000    0.16050   0.44680   0.46301   Biso      1.000     C          -0.031053           
         C2        1.0000    0.92760   0.45260   0.56695   Biso      1.000     C          -0.029301           
         C3        1.0000    0.83950   0.55320   0.53699   Biso      1.000     C          -0.031054           
         C4        1.0000    0.67920   0.62160   0.57911   Biso      1.000     C          0.59754   
         C5        1.0000    0.08920   0.40140   0.52972   Biso      1.000     C          -0.130059           
         C6        1.0000    0.82620   0.41500   0.85091   Biso      1.000     C          0.637263  
         C7        1.0000    0.92510   0.45730   0.92636   Biso      1.000     C          -0.011262           
         C8        1.0000    0.80950   0.50590   0.98796   Biso      1.000     C          -0.114995           
         C9        1.0000    0.85240   0.39090   0.63480   Biso      1.000     C          0.678721  
         C10       1.0000    0.25230   0.40390   0.87418   Biso      1.000     C          0.632053  
         C11       1.0000    0.35240   0.10910   0.86520   Biso      1.000     C          0.678721  
         C12       1.0000    0.42760   0.04740   0.93305   Biso      1.000     C          -0.029301           
         C13       1.0000    0.33950   0.94680   0.96301   Biso      1.000     C          -0.031053           
         C14       1.0000    0.17920   0.87840   0.92089   Biso      1.000     C          0.59754   
         C15       1.0000    0.58920   0.09860   0.97028   Biso      1.000     C          -0.130059           
         C16       1.0000    0.67380   0.91500   0.35091   Biso      1.000     C          0.637263  
         C17       1.0000    0.57490   0.95730   0.42636   Biso      1.000     C          -0.011262           
         C18       1.0000    0.11800   0.45140   0.93804   Biso      1.000     C          -0.035066           
         C19       1.0000    0.61800   0.04860   0.56196   Biso      1.000     C          -0.035067           
         C20       1.0000    0.75230   0.09610   0.62582   Biso      1.000     C          0.632053  
         C21       1.0000    0.30950   0.99410   0.51204   Biso      1.000     C          -0.114995           
         C22       1.0000    0.41080   0.90140   0.02972   Biso      1.000     C          -0.130059           
         C23       1.0000    0.82080   0.12160   0.07911   Biso      1.000     C          0.597541  
         C24       1.0000    0.66050   0.05320   0.03699   Biso      1.000     C          -0.031053           
         C25       1.0000    0.57240   0.95260   0.06695   Biso      1.000     C          -0.029302           
         C26       1.0000    0.64760   0.89090   0.13480   Biso      1.000     C          0.678721  
         C27       1.0000    0.88200   0.54860   0.06196   Biso      1.000     C          -0.035067           
         C28       1.0000    0.74770   0.59610   0.12582   Biso      1.000     C          0.632053  
         C29       1.0000    0.19050   0.49410   0.01204   Biso      1.000     C          -0.114995           
         C30       1.0000    0.07490   0.54270   0.07364   Biso      1.000     C          -0.011261           
         C31       1.0000    0.17380   0.58500   0.14909   Biso      1.000     C          0.637263  
         C32       1.0000    0.91080   0.59860   0.47028   Biso      1.000     C          -0.130059           
         C33       1.0000    0.32080   0.37840   0.42089   Biso      1.000     C          0.59754   
         C34       1.0000    0.07240   0.54740   0.43305   Biso      1.000     C          -0.029302           
         C35       1.0000    0.14760   0.60910   0.36520   Biso      1.000     C          0.678721  
         C36       1.0000    0.38200   0.95140   0.43804   Biso      1.000     C          -0.035066           
         C37       1.0000    0.32620   0.08500   0.64909   Biso      1.000     C          0.637263  
         C38       1.0000    0.42510   0.04270   0.57364   Biso      1.000     C          -0.011261           
         C39       1.0000    0.69050   0.00590   0.48796   Biso      1.000     C          -0.114994           
         C40       1.0000    0.24770   0.90390   0.37418   Biso      1.000     C          0.632053  
         Dy1       1.0000    0.02016   0.17632   0.74667   Biso      1.000     Dy          2.10038   
         Dy2       1.0000    0.52016   0.32368   0.75333   Biso      1.000     Dy          2.10038   
         Dy3       1.0000    0.97984   0.82368   0.25333   Biso      1.000     Dy          2.10038   
         Dy4       1.0000    0.47984   0.67632   0.24667   Biso      1.000     Dy          2.10038   
         H1        1.0000    0.34010   0.83720   0.05170   Biso      1.000     H          0.133919  
         H2        1.0000    0.17920   0.99500   0.52190   Biso      1.000     H          0.137432  
         H3        1.0000    0.46160   0.69250   0.56340   Biso      1.000     H          0.406213  
         H4        1.0000    0.15990   0.33720   0.55170   Biso      1.000     H          0.133919  
         H5        1.0000    0.67920   0.50500   0.97810   Biso      1.000     H          0.137432  
         H6        1.0000    0.03840   0.19250   0.06340   Biso      1.000     H          0.406213  
         H7        1.0000    0.65990   0.16280   0.94830   Biso      1.000     H          0.133919  
         H8        1.0000    0.82080   0.00500   0.47810   Biso      1.000     H          0.137432  
         H9        1.0000    0.53840   0.30750   0.43660   Biso      1.000     H          0.406213  
         H10       1.0000    0.84010   0.66280   0.44830   Biso      1.000     H          0.133919  
         H11       1.0000    0.32080   0.49500   0.02190   Biso      1.000     H          0.137432  
         H12       1.0000    0.96160   0.80750   0.93660   Biso      1.000     H          0.406213  
         O1        1.0000    0.69230   0.79651   0.32908   Biso      1.000     O          -0.768285           
         O2        1.0000    0.31000   0.85497   0.30730   Biso      1.000     O          -0.744887           
         O3        1.0000    0.75450   0.99355   0.31491   Biso      1.000     O          -0.556396           
         O4        1.0000    0.07730   0.91517   0.38589   Biso      1.000     O          -0.579564           
         O5        1.0000    0.32160   0.61338   0.35601   Biso      1.000     O          -0.682308           
         O6        1.0000    0.31980   0.34747   0.34990   Biso      1.000     O          -0.493242           
         O7        1.0000    0.52960   0.84474   0.17664   Biso      1.000     O          -0.668071           
         O8        1.0000    0.19230   0.70349   0.17092   Biso      1.000     O          -0.768285           
         O9        1.0000    0.81000   0.64503   0.19270   Biso      1.000     O          -0.744887           
         O10       1.0000    0.25450   0.50645   0.18509   Biso      1.000     O          -0.556396           
         O11       1.0000    0.57730   0.58483   0.11411   Biso      1.000     O          -0.579564           
         O12       1.0000    0.02960   0.65526   0.32336   Biso      1.000     O          -0.668071           
         O13       1.0000    0.82160   0.88662   0.14399   Biso      1.000     O          -0.682308           
         O14       1.0000    0.45500   0.35140   0.46723   Biso      1.000     O          -0.479032           
         O15       1.0000    0.04500   0.85140   0.96723   Biso      1.000     O          -0.479032           
         O16       1.0000    0.47040   0.15526   0.82336   Biso      1.000     O          -0.668071           
         O17       1.0000    0.17840   0.11338   0.85601   Biso      1.000     O          -0.682308           
         O18       1.0000    0.42270   0.41517   0.88589   Biso      1.000     O          -0.579564           
         O19       1.0000    0.74550   0.49355   0.81491   Biso      1.000     O          -0.556396           
         O20       1.0000    0.19000   0.35497   0.80730   Biso      1.000     O          -0.744887           
         O21       1.0000    0.80770   0.29651   0.82908   Biso      1.000     O          -0.768285           
         O22       1.0000    0.54500   0.64860   0.53277   Biso      1.000     O          -0.479032           
         O23       1.0000    0.68020   0.65253   0.65010   Biso      1.000     O          -0.493242           
         O24       1.0000    0.67840   0.38662   0.64399   Biso      1.000     O          -0.682308           
         O25       1.0000    0.92270   0.08483   0.61411   Biso      1.000     O          -0.579564           
         O26       1.0000    0.24550   0.00645   0.68509   Biso      1.000     O          -0.556396           
         O27       1.0000    0.69000   0.14503   0.69270   Biso      1.000     O          -0.744887           
         O28       1.0000    0.30770   0.20349   0.67092   Biso      1.000     O          -0.768285           
         O29       1.0000    0.97040   0.34474   0.67664   Biso      1.000     O          -0.668071           
         O30       1.0000    0.81980   0.15253   0.15010   Biso      1.000     O          -0.493242           
         O31       1.0000    0.18020   0.84747   0.84990   Biso      1.000     O          -0.493242           
         O32       1.0000    0.95500   0.14860   0.03277   Biso      1.000     O          -0.479032 