
##########################################################################
#               Crystallographic Information Format file
#               Produced by PyCifRW module
#
#  This is a CIF file.  CIF has been adopted by the International
#  Union of Crystallography as the standard for data archiving and
#  transmission.
#
#  For information on this file format, follow the CIF links at
#  http://www.iucr.org
##########################################################################

data_image0

_cell_length_a                          9.9261
_cell_length_b                          9.9261
_cell_length_c                          18.2873
_cell_angle_alpha                       84.2229
_cell_angle_beta                        76.6868
_cell_angle_gamma                       112.974
_symmetry_space_group_name_H-M          'P 1'
_symmetry_int_tables_number             1
loop_
  _symmetry_equiv_pos_as_xyz
         'x, y, z' 
loop_
  _atom_site_label
  _atom_site_occupancy
  _atom_site_fract_x
  _atom_site_fract_y
  _atom_site_fract_z
  _atom_site_thermal_displace_type
  _atom_site_B_iso_or_equiv
  _atom_site_type_symbol
  _atom_site_charge
         C1        1.0000    0.06523   0.34564   0.82413   Biso      1.000     C          -0.030632           
         C2        1.0000    0.93477   0.65436   0.17587   Biso      1.000     C          -0.030632           
         C3        1.0000    0.58270   0.65240   0.12630   Biso      1.000     C          0.6209140000000001  
         C4        1.0000    0.83657   0.66186   0.13337   Biso      1.000     C          -0.10317799999999999          
         C5        1.0000    0.09238   0.67360   0.13462   Biso      1.000     C          0.622598  
         C6        1.0000    0.68554   0.59310   0.37936   Biso      1.000     C          0.633586  
         C7        1.0000    0.88675   0.63240   0.25525   Biso      1.000     C          -0.13897  
         C8        1.0000    0.69023   0.64380   0.17077   Biso      1.000     C          -0.019786           
         C9        1.0000    0.74107   0.61780   0.29293   Biso      1.000     C          -0.022392           
         C10       1.0000    0.31457   0.86100   0.32923   Biso      1.000     C          -0.019154           
         C11       1.0000    0.33023   0.11064   0.32413   Biso      1.000     C          -0.030854000000000003         
         C12       1.0000    0.27870   0.70900   0.37370   Biso      1.000     C          0.621267  
         C13       1.0000    0.29523   0.96994   0.36663   Biso      1.000     C          -0.104269           
         C14       1.0000    0.30822   0.22700   0.36538   Biso      1.000     C          0.621825  
         C15       1.0000    0.47246   0.06490   0.12064   Biso      1.000     C          0.635591  
         C16       1.0000    0.37237   0.89290   0.24973   Biso      1.000     C          -0.120425           
         C17       1.0000    0.64263   0.62210   0.25027   Biso      1.000     C          -0.11935599999999999          
         C18       1.0000    0.35737   0.37790   0.74973   Biso      1.000     C          -0.119362           
         C19       1.0000    0.30977   0.35620   0.82923   Biso      1.000     C          -0.019783000000000002         
         C20       1.0000    0.58927   0.96600   0.79293   Biso      1.000     C          -0.023399           
         C21       1.0000    0.61235   0.85800   0.75525   Biso      1.000     C          -0.13758800000000002          
         C22       1.0000    0.52754   0.93510   0.87936   Biso      1.000     C          0.635592  
         C23       1.0000    0.69178   0.77300   0.63462   Biso      1.000     C          0.621825  
         C24       1.0000    0.70477   0.03006   0.63337   Biso      1.000     C          -0.10427  
         C25       1.0000    0.72130   0.29100   0.62630   Biso      1.000     C          0.621267  
         C26       1.0000    0.66977   0.88936   0.67587   Biso      1.000     C          -0.030853           
         C27       1.0000    0.68543   0.13900   0.67077   Biso      1.000     C          -0.019153           
         C28       1.0000    0.62763   0.10710   0.75027   Biso      1.000     C          -0.120423           
         C29       1.0000    0.25893   0.38220   0.70707   Biso      1.000     C          -0.022391           
         C30       1.0000    0.11325   0.36760   0.74475   Biso      1.000     C          -0.138969           
         C31       1.0000    0.31446   0.40690   0.62064   Biso      1.000     C          0.633587  
         C32       1.0000    0.90762   0.32640   0.86538   Biso      1.000     C          0.622598  
         C33       1.0000    0.16343   0.33814   0.86663   Biso      1.000     C          -0.103177           
         C34       1.0000    0.41730   0.34760   0.87370   Biso      1.000     C          0.6209140000000001  
         C35       1.0000    0.38765   0.14200   0.24475   Biso      1.000     C          -0.13758900000000002          
         C36       1.0000    0.41073   0.03400   0.20707   Biso      1.000     C          -0.023396           
         Ca1       1.0000    0.40156   0.74136   0.04872   Biso      1.000     Ca          1.403354  
         Ca2       1.0000    0.20626   0.45626   0.25000   Biso      1.000     Ca          1.538873  
         Ca3       1.0000    0.29008   0.45028   0.45128   Biso      1.000     Ca          1.403178  
         Ca4       1.0000    0.59844   0.25864   0.95128   Biso      1.000     Ca          1.403355  
         Ca5       1.0000    0.70992   0.54972   0.54872   Biso      1.000     Ca          1.4031790000000002  
         Ca6       1.0000    0.79374   0.54374   0.75000   Biso      1.000     Ca          1.538873  
         H1        1.0000    0.58900   0.76440   0.78360   Biso      1.000     H          0.11344000000000001           
         H2        1.0000    0.54460   0.61040   0.27520   Biso      1.000     H          0.113454  
         H3        1.0000    0.86920   0.67880   0.08000   Biso      1.000     H          0.128906  
         H4        1.0000    0.95200   0.62740   0.28360   Biso      1.000     H          0.113694  
         H5        1.0000    0.74120   0.05080   0.58000   Biso      1.000     H          0.129465  
         H6        1.0000    0.25880   0.94920   0.42000   Biso      1.000     H          0.129465  
         H7        1.0000    0.41100   0.23560   0.21640   Biso      1.000     H          0.11344000000000001           
         H8        1.0000    0.45540   0.38960   0.72480   Biso      1.000     H          0.113454  
         H9        1.0000    0.13080   0.32120   0.92000   Biso      1.000     H          0.128906  
         H10       1.0000    0.04800   0.37260   0.71640   Biso      1.000     H          0.113693  
         H11       1.0000    0.61440   0.18020   0.77520   Biso      1.000     H          0.114479  
         H12       1.0000    0.38560   0.81980   0.22480   Biso      1.000     H          0.11448   
         O1        1.0000    0.36404   0.29119   0.94497   Biso      1.000     O          -0.600644           
         O2        1.0000    0.83719   0.37613   0.82848   Biso      1.000     O          -0.757414           
         O3        1.0000    0.84890   0.26143   0.93467   Biso      1.000     O          -0.582676           
         O4        1.0000    0.22036   0.40380   0.58424   Biso      1.000     O          -0.642177           
         O5        1.0000    0.73616   0.30901   0.55503   Biso      1.000     O          -0.6008100000000001           
         O6        1.0000    0.69610   0.78357   0.56533   Biso      1.000     O          -0.58262  
         O7        1.0000    0.73212   0.39560   0.66148   Biso      1.000     O          -0.73468  
         O8        1.0000    0.70461   0.66567   0.67152   Biso      1.000     O          -0.756396           
         O9        1.0000    0.55708   0.39360   0.83852   Biso      1.000     O          -0.7341270000000001           
         O10       1.0000    0.45017   0.42801   0.59022   Biso      1.000     O          -0.654424           
         O11       1.0000    0.48177   0.95961   0.09022   Biso      1.000     O          -0.655391           
         O12       1.0000    0.15110   0.73857   0.06533   Biso      1.000     O          -0.582676           
         O13       1.0000    0.30390   0.21643   0.43467   Biso      1.000     O          -0.58262  
         O14       1.0000    0.29539   0.33433   0.32848   Biso      1.000     O          -0.756396           
         O15       1.0000    0.26384   0.69099   0.44497   Biso      1.000     O          -0.6008100000000001           
         O16       1.0000    0.26788   0.60440   0.33852   Biso      1.000     O          -0.73468  
         O17       1.0000    0.54983   0.57199   0.40978   Biso      1.000     O          -0.654424           
         O18       1.0000    0.77964   0.59620   0.41576   Biso      1.000     O          -0.642178           
         O19       1.0000    0.16281   0.62387   0.17152   Biso      1.000     O          -0.757414           
         O20       1.0000    0.63596   0.70881   0.05503   Biso      1.000     O          -0.600644           
         O21       1.0000    0.44292   0.60640   0.16148   Biso      1.000     O          -0.734128           
         O22       1.0000    0.48804   0.80460   0.91576   Biso      1.000     O          -0.643266           
         O23       1.0000    0.51196   0.19540   0.08424   Biso      1.000     O          -0.643266           
         O24       1.0000    0.51823   0.04039   0.90978   Biso      1.000     O          -0.655391 