
##########################################################################
#               Crystallographic Information Format file
#               Produced by PyCifRW module
#
#  This is a CIF file.  CIF has been adopted by the International
#  Union of Crystallography as the standard for data archiving and
#  transmission.
#
#  For information on this file format, follow the CIF links at
#  http://www.iucr.org
##########################################################################

data_image0

_cell_length_a                          10.3322
_cell_length_b                          10.3322
_cell_length_c                          18.981
_cell_angle_alpha                       81.09
_cell_angle_beta                        81.09
_cell_angle_gamma                       82.4101
_symmetry_space_group_name_H-M          'P 1'
_symmetry_int_tables_number             1
loop_
  _symmetry_equiv_pos_as_xyz
         'x, y, z' 
loop_
  _atom_site_label
  _atom_site_occupancy
  _atom_site_fract_x
  _atom_site_fract_y
  _atom_site_fract_z
  _atom_site_thermal_displace_type
  _atom_site_B_iso_or_equiv
  _atom_site_type_symbol
  _atom_site_charge
         C1        1.0000    0.12550   0.20830   0.23680   Biso      1.000     C          -0.029553           
         C2        1.0000    0.05110   0.20670   0.04610   Biso      1.000     C          0.5995    
         C3        1.0000    0.09280   0.16600   0.17560   Biso      1.000     C          -0.144384           
         C4        1.0000    0.94540   0.55880   0.35180   Biso      1.000     C          -0.575437           
         C5        1.0000    0.12000   0.38180   0.10760   Biso      1.000     C          -0.111859           
         C6        1.0000    0.15600   0.42300   0.16810   Biso      1.000     C          -0.032943           
         C7        1.0000    0.08990   0.25150   0.11130   Biso      1.000     C          -0.028648           
         C8        1.0000    0.18580   0.56360   0.16460   Biso      1.000     C          0.620504  
         C9        1.0000    0.15760   0.33600   0.23130   Biso      1.000     C          -0.137251           
         C10       1.0000    0.16930   0.48850   0.41230   Biso      1.000     C          -0.606693           
         C11       1.0000    0.12900   0.11560   0.30650   Biso      1.000     C          0.607697  
         C12       1.0000    0.79330   0.94890   0.45390   Biso      1.000     C          0.5995    
         C13       1.0000    0.83400   0.90720   0.32440   Biso      1.000     C          -0.144384           
         C14       1.0000    0.44120   0.05460   0.14820   Biso      1.000     C          -0.575437           
         C15       1.0000    0.61820   0.88000   0.39240   Biso      1.000     C          -0.111859           
         C16       1.0000    0.79170   0.87450   0.26320   Biso      1.000     C          -0.029553           
         C17       1.0000    0.57700   0.84400   0.33190   Biso      1.000     C          -0.032943           
         C18       1.0000    0.74850   0.91010   0.38870   Biso      1.000     C          -0.028648           
         C19       1.0000    0.43640   0.81420   0.33540   Biso      1.000     C          0.620504  
         C20       1.0000    0.51150   0.83070   0.08770   Biso      1.000     C          -0.606693           
         C21       1.0000    0.11560   0.12900   0.80650   Biso      1.000     C          0.607697  
         C22       1.0000    0.33600   0.15760   0.73130   Biso      1.000     C          -0.137255           
         C23       1.0000    0.56360   0.18580   0.66460   Biso      1.000     C          0.620503  
         C24       1.0000    0.83070   0.51150   0.58770   Biso      1.000     C          -0.606693           
         C25       1.0000    0.94890   0.79330   0.95390   Biso      1.000     C          0.5995    
         C26       1.0000    0.90720   0.83400   0.82440   Biso      1.000     C          -0.144385           
         C27       1.0000    0.05460   0.44120   0.64820   Biso      1.000     C          -0.575437           
         C28       1.0000    0.88000   0.61820   0.89240   Biso      1.000     C          -0.111859           
         C29       1.0000    0.87450   0.79170   0.76320   Biso      1.000     C          -0.029553           
         C30       1.0000    0.84400   0.57700   0.83190   Biso      1.000     C          -0.032943           
         C31       1.0000    0.91010   0.74850   0.88870   Biso      1.000     C          -0.028648           
         C32       1.0000    0.81420   0.43640   0.83540   Biso      1.000     C          0.620504  
         C33       1.0000    0.84240   0.66400   0.76870   Biso      1.000     C          -0.137252           
         C34       1.0000    0.87100   0.88440   0.69350   Biso      1.000     C          0.607697  
         C35       1.0000    0.48850   0.16930   0.91230   Biso      1.000     C          -0.606693           
         C36       1.0000    0.20670   0.05110   0.54610   Biso      1.000     C          0.5995    
         C37       1.0000    0.16600   0.09280   0.67560   Biso      1.000     C          -0.144384           
         C38       1.0000    0.55880   0.94540   0.85180   Biso      1.000     C          -0.575437           
         C39       1.0000    0.38180   0.12000   0.60760   Biso      1.000     C          -0.11186  
         C40       1.0000    0.20830   0.12550   0.73680   Biso      1.000     C          -0.029552           
         C41       1.0000    0.42300   0.15600   0.66810   Biso      1.000     C          -0.032939           
         C42       1.0000    0.25150   0.08990   0.61130   Biso      1.000     C          -0.028649           
         C43       1.0000    0.88440   0.87100   0.19350   Biso      1.000     C          0.607697  
         C44       1.0000    0.66400   0.84240   0.26870   Biso      1.000     C          -0.137251           
         Ca1       1.0000    0.07677   0.85235   0.06595   Biso      1.000     Ca          1.403448  
         Ca2       1.0000    0.80193   0.19807   0.75000   Biso      1.000     Ca          1.390302  
         Ca3       1.0000    0.14765   0.92323   0.43405   Biso      1.000     Ca          1.403448  
         Ca4       1.0000    0.92323   0.14765   0.93405   Biso      1.000     Ca          1.403448  
         Ca5       1.0000    0.85235   0.07677   0.56595   Biso      1.000     Ca          1.403448  
         Ca6       1.0000    0.19807   0.80193   0.25000   Biso      1.000     Ca          1.390302  
         H1        1.0000    0.91950   0.47310   0.37130   Biso      1.000     H          0.202771  
         H2        1.0000    0.86840   0.61980   0.34520   Biso      1.000     H          0.199783  
         H3        1.0000    0.11610   0.44010   0.06520   Biso      1.000     H          0.136673  
         H4        1.0000    0.18110   0.36410   0.27140   Biso      1.000     H          0.115554  
         H5        1.0000    0.50020   0.77620   0.05300   Biso      1.000     H          0.203112  
         H6        1.0000    0.59610   0.86310   0.07550   Biso      1.000     H          0.197315  
         H7        1.0000    0.50620   0.77960   0.13470   Biso      1.000     H          0.218693  
         H8        1.0000    0.44610   0.00010   0.19380   Biso      1.000     H          0.205663  
         H9        1.0000    0.99990   0.55390   0.30620   Biso      1.000     H          0.205663  
         H10       1.0000    0.52690   0.08050   0.12870   Biso      1.000     H          0.202771  
         H11       1.0000    0.38020   0.13160   0.15480   Biso      1.000     H          0.199783  
         H12       1.0000    0.55990   0.88390   0.43480   Biso      1.000     H          0.136673  
         H13       1.0000    0.63590   0.81890   0.22860   Biso      1.000     H          0.115555  
         H14       1.0000    0.77620   0.50020   0.55300   Biso      1.000     H          0.203112  
         H15       1.0000    0.91990   0.92730   0.32200   Biso      1.000     H          0.114201  
         H16       1.0000    0.07270   0.08010   0.17800   Biso      1.000     H          0.114201  
         H17       1.0000    0.86310   0.59610   0.57550   Biso      1.000     H          0.197315  
         H18       1.0000    0.13690   0.40390   0.42450   Biso      1.000     H          0.197315  
         H19       1.0000    0.22040   0.49380   0.36530   Biso      1.000     H          0.218694  
         H20       1.0000    0.77960   0.50620   0.63470   Biso      1.000     H          0.218693  
         H21       1.0000    0.92730   0.91990   0.82200   Biso      1.000     H          0.114201  
         H22       1.0000    0.08050   0.52690   0.62870   Biso      1.000     H          0.202771  
         H23       1.0000    0.13160   0.38020   0.65480   Biso      1.000     H          0.199783  
         H24       1.0000    0.88390   0.55990   0.93480   Biso      1.000     H          0.136673  
         H25       1.0000    0.81890   0.63590   0.72860   Biso      1.000     H          0.115555  
         H26       1.0000    0.49980   0.22380   0.94700   Biso      1.000     H          0.203112  
         H27       1.0000    0.40390   0.13690   0.92450   Biso      1.000     H          0.197315  
         H28       1.0000    0.00010   0.44610   0.69380   Biso      1.000     H          0.205663  
         H29       1.0000    0.08010   0.07270   0.67800   Biso      1.000     H          0.114201  
         H30       1.0000    0.55390   0.99990   0.80620   Biso      1.000     H          0.205663  
         H31       1.0000    0.47310   0.91950   0.87130   Biso      1.000     H          0.202771  
         H32       1.0000    0.61980   0.86840   0.84520   Biso      1.000     H          0.199783  
         H33       1.0000    0.44010   0.11610   0.56520   Biso      1.000     H          0.136673  
         H34       1.0000    0.36410   0.18110   0.77140   Biso      1.000     H          0.115555  
         H35       1.0000    0.49380   0.22040   0.86530   Biso      1.000     H          0.218694  
         H36       1.0000    0.22380   0.49980   0.44700   Biso      1.000     H          0.203112  
         O1        1.0000    0.21740   0.59240   0.22180   Biso      1.000     O          -0.661827           
         O2        1.0000    0.99300   0.15060   0.80302   Biso      1.000     O          -0.688635           
         O3        1.0000    0.08490   0.04710   0.54574   Biso      1.000     O          -0.714244           
         O4        1.0000    0.73500   0.09540   0.87085   Biso      1.000     O          -0.665163           
         O5        1.0000    0.64120   0.17660   0.60790   Biso      1.000     O          -0.641836           
         O6        1.0000    0.29160   0.02220   0.49500   Biso      1.000     O          -0.584555           
         O7        1.0000    0.84940   0.00700   0.69698   Biso      1.000     O          -0.688635           
         O8        1.0000    0.59240   0.21740   0.72180   Biso      1.000     O          -0.661827           
         O9        1.0000    0.95290   0.91510   0.95426   Biso      1.000     O          -0.714244           
         O10       1.0000    0.90460   0.26500   0.62915   Biso      1.000     O          -0.665163           
         O11       1.0000    0.82340   0.35880   0.89210   Biso      1.000     O          -0.641836           
         O12       1.0000    0.11260   0.16000   0.36559   Biso      1.000     O          -0.600514           
         O13       1.0000    0.97780   0.70840   0.00500   Biso      1.000     O          -0.584555           
         O14       1.0000    0.16000   0.11260   0.86559   Biso      1.000     O          -0.600514           
         O15       1.0000    0.02220   0.29160   0.99500   Biso      1.000     O          -0.584555           
         O16       1.0000    0.26500   0.90460   0.12915   Biso      1.000     O          -0.665163           
         O17       1.0000    0.09540   0.73500   0.37085   Biso      1.000     O          -0.665163           
         O18       1.0000    0.04710   0.08490   0.04574   Biso      1.000     O          -0.714244           
         O19       1.0000    0.15060   0.99300   0.30302   Biso      1.000     O          -0.688635           
         O20       1.0000    0.40760   0.78260   0.27820   Biso      1.000     O          -0.661827           
         O21       1.0000    0.84000   0.88740   0.13441   Biso      1.000     O          -0.600514           
         O22       1.0000    0.70840   0.97780   0.50500   Biso      1.000     O          -0.584555           
         O23       1.0000    0.35880   0.82340   0.39210   Biso      1.000     O          -0.641836           
         O24       1.0000    0.91510   0.95290   0.45426   Biso      1.000     O          -0.714244           
         O25       1.0000    0.00700   0.84940   0.19698   Biso      1.000     O          -0.688635           
         O26       1.0000    0.88740   0.84000   0.63441   Biso      1.000     O          -0.600514           
         O27       1.0000    0.17660   0.64120   0.10790   Biso      1.000     O          -0.641836           
         O28       1.0000    0.78260   0.40760   0.77820   Biso      1.000     O          -0.661827           
         S1        1.0000    0.96456   0.38670   0.58782   Biso      1.000     S          0.703479  
         S2        1.0000    0.61330   0.03544   0.91218   Biso      1.000     S          0.703479  
         S3        1.0000    0.03544   0.61330   0.41218   Biso      1.000     S          0.703479  
         S4        1.0000    0.38670   0.96456   0.08782   Biso      1.000     S          0.703479 