
##########################################################################
#               Crystallographic Information Format file
#               Produced by PyCifRW module
#
#  This is a CIF file.  CIF has been adopted by the International
#  Union of Crystallography as the standard for data archiving and
#  transmission.
#
#  For information on this file format, follow the CIF links at
#  http://www.iucr.org
##########################################################################

data_image0

_cell_length_a                          8.7731
_cell_length_b                          11.033
_cell_length_c                          25.689
_cell_angle_alpha                       90
_cell_angle_beta                        90
_cell_angle_gamma                       101.834
_symmetry_space_group_name_H-M          'P 1'
_symmetry_int_tables_number             1
loop_
  _symmetry_equiv_pos_as_xyz
         'x, y, z' 
loop_
  _atom_site_label
  _atom_site_occupancy
  _atom_site_fract_x
  _atom_site_fract_y
  _atom_site_fract_z
  _atom_site_thermal_displace_type
  _atom_site_B_iso_or_equiv
  _atom_site_type_symbol
  _atom_site_charge
         C1        1.0000    0.01400   0.51350   0.40250   Biso      1.000     C          0.155898  
         C2        1.0000    0.82960   0.68490   0.22280   Biso      1.000     C          0.10370599999999999           
         C3        1.0000    0.97590   0.53620   0.22220   Biso      1.000     C          0.084731  
         C4        1.0000    0.41380   0.11950   0.19370   Biso      1.000     C          0.169758  
         C5        1.0000    0.01400   0.51350   0.09750   Biso      1.000     C          0.155899  
         C6        1.0000    0.15330   0.32730   0.95940   Biso      1.000     C          0.147071  
         C7        1.0000    0.69670   0.49790   0.11150   Biso      1.000     C          0.093234  
         C8        1.0000    0.74920   0.76490   0.30480   Biso      1.000     C          0.098996  
         C9        1.0000    0.67760   0.83910   0.38130   Biso      1.000     C          0.046542  
         C10       1.0000    0.59870   0.91830   0.35420   Biso      1.000     C          0.059323  
         C11       1.0000    0.67170   0.84270   0.27750   Biso      1.000     C          0.09817999999999999           
         C12       1.0000    0.82960   0.68490   0.27720   Biso      1.000     C          0.103708  
         C13       1.0000    0.97590   0.53620   0.27780   Biso      1.000     C          0.084732  
         C14       1.0000    0.41380   0.11950   0.30630   Biso      1.000     C          0.169758  
         C15       1.0000    0.07920   0.77220   0.39100   Biso      1.000     C          -0.05613099999999999          
         C16       1.0000    0.15330   0.32730   0.54060   Biso      1.000     C          0.147071  
         C17       1.0000    0.69670   0.49790   0.38850   Biso      1.000     C          0.093234  
         C18       1.0000    0.25080   0.23510   0.80480   Biso      1.000     C          0.098996  
         C19       1.0000    0.29980   0.89520   0.25000   Biso      1.000     C          -0.067538           
         C20       1.0000    0.69200   0.16370   0.25000   Biso      1.000     C          -0.074693           
         C21       1.0000    0.70020   0.10480   0.75000   Biso      1.000     C          -0.067538           
         C22       1.0000    0.30800   0.83630   0.75000   Biso      1.000     C          -0.074693           
         C23       1.0000    0.30330   0.50210   0.88850   Biso      1.000     C          0.093234  
         C24       1.0000    0.84670   0.67270   0.04060   Biso      1.000     C          0.147072  
         C25       1.0000    0.67170   0.84270   0.22250   Biso      1.000     C          0.09817999999999999           
         C26       1.0000    0.98600   0.48650   0.90250   Biso      1.000     C          0.155898  
         C27       1.0000    0.58620   0.88050   0.80630   Biso      1.000     C          0.169758  
         C28       1.0000    0.02410   0.46380   0.77780   Biso      1.000     C          0.084731  
         C29       1.0000    0.17040   0.31510   0.77720   Biso      1.000     C          0.10370599999999999           
         C30       1.0000    0.32830   0.15730   0.77750   Biso      1.000     C          0.09817999999999999           
         C31       1.0000    0.40130   0.08170   0.85420   Biso      1.000     C          0.059323  
         C32       1.0000    0.32240   0.16090   0.88130   Biso      1.000     C          0.046542  
         C33       1.0000    0.92080   0.22780   0.89100   Biso      1.000     C          -0.056129           
         C34       1.0000    0.59870   0.91830   0.14580   Biso      1.000     C          0.059323  
         C35       1.0000    0.07920   0.77220   0.10900   Biso      1.000     C          -0.05613099999999999          
         C36       1.0000    0.74920   0.76490   0.19520   Biso      1.000     C          0.098996  
         C37       1.0000    0.25080   0.23510   0.69520   Biso      1.000     C          0.098996  
         C38       1.0000    0.32240   0.16090   0.61870   Biso      1.000     C          0.046542  
         C39       1.0000    0.67760   0.83910   0.11870   Biso      1.000     C          0.046542  
         C40       1.0000    0.32830   0.15730   0.72250   Biso      1.000     C          0.09817999999999999           
         C41       1.0000    0.17040   0.31510   0.72280   Biso      1.000     C          0.103708  
         C42       1.0000    0.02410   0.46380   0.72220   Biso      1.000     C          0.084732  
         C43       1.0000    0.40130   0.08170   0.64580   Biso      1.000     C          0.059323  
         C44       1.0000    0.92080   0.22780   0.60900   Biso      1.000     C          -0.056133           
         C45       1.0000    0.98600   0.48650   0.59750   Biso      1.000     C          0.155898  
         C46       1.0000    0.84670   0.67270   0.45940   Biso      1.000     C          0.147071  
         C47       1.0000    0.30330   0.50210   0.61150   Biso      1.000     C          0.09323300000000001           
         C48       1.0000    0.58620   0.88050   0.69370   Biso      1.000     C          0.169758  
         H1        1.0000    0.32280   0.15910   0.58250   Biso      1.000     H          0.11351300000000002           
         H2        1.0000    0.45310   0.03050   0.62690   Biso      1.000     H          0.124261  
         H3        1.0000    0.97280   0.51730   0.70450   Biso      1.000     H          0.11295   
         H4        1.0000    0.67720   0.84090   0.08250   Biso      1.000     H          0.11351300000000002           
         H5        1.0000    0.54690   0.96950   0.12690   Biso      1.000     H          0.124261  
         H6        1.0000    0.02720   0.48270   0.20450   Biso      1.000     H          0.11295   
         H7        1.0000    0.67720   0.84090   0.41750   Biso      1.000     H          0.11351300000000002           
         H8        1.0000    0.54690   0.96950   0.37310   Biso      1.000     H          0.124261  
         H9        1.0000    0.32280   0.15910   0.91750   Biso      1.000     H          0.11351300000000002           
         H10       1.0000    0.02720   0.48270   0.29550   Biso      1.000     H          0.11295   
         H11       1.0000    0.97280   0.51730   0.79550   Biso      1.000     H          0.11295   
         H12       1.0000    0.45310   0.03050   0.87310   Biso      1.000     H          0.124261  
         N1        1.0000    0.17590   0.29880   0.00130   Biso      1.000     N          -0.627618           
         N2        1.0000    0.58860   0.41590   0.10880   Biso      1.000     N          -0.617857           
         N3        1.0000    0.75240   0.76180   0.35770   Biso      1.000     N          -0.122369           
         N4        1.0000    0.59610   0.92220   0.30250   Biso      1.000     N          -0.100583           
         N5        1.0000    0.90480   0.61040   0.30500   Biso      1.000     N          -0.104501           
         N6        1.0000    0.37380   0.17140   0.34170   Biso      1.000     N          -0.653125           
         N7        1.0000    0.19120   0.84720   0.39810   Biso      1.000     N          -0.426921           
         N8        1.0000    0.09200   0.44160   0.40920   Biso      1.000     N          -0.616847           
         N9        1.0000    0.17590   0.29880   0.49870   Biso      1.000     N          -0.627618           
         N10       1.0000    0.58860   0.41590   0.39120   Biso      1.000     N          -0.617857           
         N11       1.0000    0.80730   0.18750   0.75000   Biso      1.000     N          -0.400853           
         N12       1.0000    0.41140   0.58410   0.89120   Biso      1.000     N          -0.617857           
         N13       1.0000    0.09200   0.44160   0.09080   Biso      1.000     N          -0.616847           
         N14       1.0000    0.40390   0.07780   0.80250   Biso      1.000     N          -0.100583           
         N15       1.0000    0.09520   0.38960   0.80500   Biso      1.000     N          -0.104501           
         N16       1.0000    0.62620   0.82860   0.84170   Biso      1.000     N          -0.653125           
         N17       1.0000    0.80880   0.15280   0.89810   Biso      1.000     N          -0.426922           
         N18       1.0000    0.24760   0.23820   0.85770   Biso      1.000     N          -0.122369           
         N19       1.0000    0.90800   0.55840   0.90920   Biso      1.000     N          -0.616847           
         N20       1.0000    0.82410   0.70120   0.99870   Biso      1.000     N          -0.627618           
         N21       1.0000    0.19880   0.75740   0.75000   Biso      1.000     N          -0.426645           
         N22       1.0000    0.19120   0.84720   0.10190   Biso      1.000     N          -0.42691999999999997          
         N23       1.0000    0.19270   0.81250   0.25000   Biso      1.000     N          -0.400853           
         N24       1.0000    0.90480   0.61040   0.19500   Biso      1.000     N          -0.104501           
         N25       1.0000    0.37380   0.17140   0.15830   Biso      1.000     N          -0.653125           
         N26       1.0000    0.24760   0.23820   0.64230   Biso      1.000     N          -0.122369           
         N27       1.0000    0.40390   0.07780   0.69750   Biso      1.000     N          -0.100583           
         N28       1.0000    0.09520   0.38960   0.69500   Biso      1.000     N          -0.104502           
         N29       1.0000    0.62620   0.82860   0.65830   Biso      1.000     N          -0.653125           
         N30       1.0000    0.80120   0.24260   0.25000   Biso      1.000     N          -0.426646           
         N31       1.0000    0.90800   0.55840   0.59080   Biso      1.000     N          -0.616847           
         N32       1.0000    0.82410   0.70120   0.50130   Biso      1.000     N          -0.627618           
         N33       1.0000    0.41140   0.58410   0.60880   Biso      1.000     N          -0.617857           
         N34       1.0000    0.75240   0.76180   0.14230   Biso      1.000     N          -0.122368           
         N35       1.0000    0.59610   0.92220   0.19750   Biso      1.000     N          -0.100583           
         N36       1.0000    0.80880   0.15280   0.60190   Biso      1.000     N          -0.42691999999999997          
         Nd1       1.0000    0.69631   0.68673   0.91024   Biso      1.000     Nd          2.061423  
         Nd2       1.0000    0.30369   0.31327   0.41024   Biso      1.000     Nd          2.061423  
         Nd3       1.0000    0.30369   0.31327   0.08976   Biso      1.000     Nd          2.061424  
         Nd4       1.0000    0.69631   0.68673   0.58976   Biso      1.000     Nd          2.061425  
         Ru1       1.0000    0.49526   0.02928   0.25000   Biso      1.000     Ru          0.25669200000000003           
         Ru2       1.0000    0.50474   0.97072   0.75000   Biso      1.000     Ru          0.256689  
         Ru3       1.0000    0.11571   0.36460   0.88593   Biso      1.000     Ru          0.212881  
         Ru4       1.0000    0.88429   0.63540   0.38593   Biso      1.000     Ru          0.212883  
         Ru5       1.0000    0.88429   0.63540   0.11407   Biso      1.000     Ru          0.21288   
         Ru6       1.0000    0.11571   0.36460   0.61407   Biso      1.000     Ru          0.21288600000000002 