
##########################################################################
#               Crystallographic Information Format file
#               Produced by PyCifRW module
#
#  This is a CIF file.  CIF has been adopted by the International
#  Union of Crystallography as the standard for data archiving and
#  transmission.
#
#  For information on this file format, follow the CIF links at
#  http://www.iucr.org
##########################################################################

data_image0

_cell_length_a                          10.275
_cell_length_b                          11.2876
_cell_length_c                          22.2272
_cell_angle_alpha                       90
_cell_angle_beta                        97.321
_cell_angle_gamma                       90
_symmetry_space_group_name_H-M          'P 1'
_symmetry_int_tables_number             1
loop_
  _symmetry_equiv_pos_as_xyz
         'x, y, z' 
loop_
  _atom_site_label
  _atom_site_occupancy
  _atom_site_fract_x
  _atom_site_fract_y
  _atom_site_fract_z
  _atom_site_thermal_displace_type
  _atom_site_B_iso_or_equiv
  _atom_site_type_symbol
  _atom_site_charge
         C1        1.0000    0.02540   0.15470   0.27080   Biso      1.000     C          -0.578186           
         C2        1.0000    0.34740   0.35270   0.26190   Biso      1.000     C          -0.013477000000000001         
         C3        1.0000    0.24030   0.42660   0.24800   Biso      1.000     C          -0.006357           
         C4        1.0000    0.15770   0.50470   0.28280   Biso      1.000     C          0.634506  
         C5        1.0000    0.20450   0.59130   0.72200   Biso      1.000     C          0.485821  
         C6        1.0000    0.26440   0.54580   0.78560   Biso      1.000     C          0.493046  
         C7        1.0000    0.46400   0.35110   0.70680   Biso      1.000     C          0.47423699999999996           
         C8        1.0000    0.50560   0.38430   0.54860   Biso      1.000     C          0.6861470000000001  
         C9        1.0000    0.44920   0.37050   0.60680   Biso      1.000     C          -0.008283           
         C10       1.0000    0.32670   0.35220   0.62380   Biso      1.000     C          0.022993  
         C11       1.0000    0.41910   0.31240   0.32000   Biso      1.000     C          0.6467310000000001  
         C12       1.0000    0.19420   0.34910   0.58780   Biso      1.000     C          0.681908  
         C13       1.0000    0.81100   0.13850   0.66360   Biso      1.000     C          0.457326  
         C14       1.0000    0.91910   0.18760   0.82000   Biso      1.000     C          0.6467310000000001  
         C15       1.0000    0.84740   0.14730   0.76190   Biso      1.000     C          -0.013478           
         C16       1.0000    0.74030   0.07340   0.74800   Biso      1.000     C          -0.006357           
         C17       1.0000    0.65770   0.99530   0.78280   Biso      1.000     C          0.634506  
         C18       1.0000    0.29550   0.09130   0.77800   Biso      1.000     C          0.485821  
         C19       1.0000    0.23560   0.04580   0.71440   Biso      1.000     C          0.493046  
         C20       1.0000    0.97460   0.84530   0.72920   Biso      1.000     C          -0.578186           
         C21       1.0000    0.03600   0.85110   0.79320   Biso      1.000     C          0.47423699999999996           
         C22       1.0000    0.81680   0.15320   0.59700   Biso      1.000     C          -0.569954           
         C23       1.0000    0.99440   0.88430   0.95140   Biso      1.000     C          0.6861470000000001  
         C24       1.0000    0.31100   0.36150   0.16360   Biso      1.000     C          0.457326  
         C25       1.0000    0.69420   0.15090   0.08780   Biso      1.000     C          0.681908  
         C26       1.0000    0.79550   0.40870   0.27800   Biso      1.000     C          0.485821  
         C27       1.0000    0.73560   0.45420   0.21440   Biso      1.000     C          0.493046  
         C28       1.0000    0.47460   0.65470   0.22920   Biso      1.000     C          -0.578186           
         C29       1.0000    0.53600   0.64890   0.29320   Biso      1.000     C          0.47423699999999996           
         C30       1.0000    0.49440   0.61570   0.45140   Biso      1.000     C          0.6861470000000001  
         C31       1.0000    0.55080   0.62950   0.39320   Biso      1.000     C          -0.008283           
         C32       1.0000    0.67330   0.64780   0.37620   Biso      1.000     C          0.022993  
         C33       1.0000    0.80580   0.65090   0.41220   Biso      1.000     C          0.681908  
         C34       1.0000    0.18320   0.84680   0.40300   Biso      1.000     C          -0.569954           
         C35       1.0000    0.31680   0.34680   0.09700   Biso      1.000     C          -0.569954           
         C36       1.0000    0.18900   0.86150   0.33640   Biso      1.000     C          0.457326  
         C37       1.0000    0.15260   0.85270   0.23810   Biso      1.000     C          -0.013477000000000001         
         C38       1.0000    0.25970   0.92660   0.25200   Biso      1.000     C          -0.006357           
         C39       1.0000    0.34230   0.00470   0.21720   Biso      1.000     C          0.634506  
         C40       1.0000    0.70450   0.90870   0.22200   Biso      1.000     C          0.485821  
         C41       1.0000    0.76440   0.95420   0.28560   Biso      1.000     C          0.493046  
         C42       1.0000    0.96400   0.14890   0.20680   Biso      1.000     C          0.47423699999999996           
         C43       1.0000    0.00560   0.11570   0.04860   Biso      1.000     C          0.6861470000000001  
         C44       1.0000    0.94920   0.12950   0.10680   Biso      1.000     C          -0.008283           
         C45       1.0000    0.82670   0.14780   0.12380   Biso      1.000     C          0.022992  
         C46       1.0000    0.08090   0.81240   0.18000   Biso      1.000     C          0.6467310000000001  
         C47       1.0000    0.05080   0.87050   0.89320   Biso      1.000     C          -0.008283           
         C48       1.0000    0.52540   0.34530   0.77080   Biso      1.000     C          -0.578187           
         C49       1.0000    0.30580   0.84910   0.91220   Biso      1.000     C          0.681908  
         C50       1.0000    0.68320   0.65320   0.90300   Biso      1.000     C          -0.569954           
         C51       1.0000    0.68900   0.63850   0.83640   Biso      1.000     C          0.457326  
         C52       1.0000    0.58090   0.68760   0.68000   Biso      1.000     C          0.6467310000000001  
         C53       1.0000    0.65260   0.64730   0.73810   Biso      1.000     C          -0.013478           
         C54       1.0000    0.75970   0.57340   0.75200   Biso      1.000     C          -0.006357           
         C55       1.0000    0.84230   0.49530   0.71720   Biso      1.000     C          0.634506  
         C56       1.0000    0.17330   0.85220   0.87620   Biso      1.000     C          0.022992  
         H1        1.0000    0.49340   0.27690   0.78990   Biso      1.000     H          0.198053  
         H2        1.0000    0.81200   0.23580   0.58680   Biso      1.000     H          0.192631  
         H3        1.0000    0.74440   0.11220   0.57460   Biso      1.000     H          0.181827  
         H4        1.0000    0.89770   0.12090   0.58690   Biso      1.000     H          0.20634499999999997           
         H5        1.0000    0.61880   0.38040   0.66300   Biso      1.000     H          0.311102  
         H6        1.0000    0.65640   0.03110   0.66400   Biso      1.000     H          0.327388  
         H7        1.0000    0.75560   0.61220   0.92540   Biso      1.000     H          0.181827  
         H8        1.0000    0.00660   0.77690   0.71010   Biso      1.000     H          0.198052  
         H9        1.0000    0.68800   0.73580   0.91320   Biso      1.000     H          0.192631  
         H10       1.0000    0.61900   0.33970   0.77200   Biso      1.000     H          0.16256900000000002           
         H11       1.0000    0.60230   0.62090   0.91310   Biso      1.000     H          0.20634499999999997           
         H12       1.0000    0.88120   0.88040   0.83700   Biso      1.000     H          0.311102  
         H13       1.0000    0.84360   0.53110   0.83600   Biso      1.000     H          0.327388  
         H14       1.0000    0.88100   0.83970   0.72800   Biso      1.000     H          0.16256900000000002           
         H15       1.0000    0.50370   0.41550   0.79180   Biso      1.000     H          0.201649  
         H16       1.0000    0.99630   0.91550   0.70820   Biso      1.000     H          0.201649  
         H17       1.0000    0.11880   0.11960   0.16300   Biso      1.000     H          0.311102  
         H18       1.0000    0.15640   0.46890   0.16400   Biso      1.000     H          0.327388  
         H19       1.0000    0.49630   0.58450   0.20820   Biso      1.000     H          0.201649  
         H20       1.0000    0.50660   0.72310   0.21010   Biso      1.000     H          0.198052  
         H21       1.0000    0.18800   0.76420   0.41320   Biso      1.000     H          0.192631  
         H22       1.0000    0.25560   0.88780   0.42540   Biso      1.000     H          0.181827  
         H23       1.0000    0.10230   0.87910   0.41310   Biso      1.000     H          0.20634499999999997           
         H24       1.0000    0.38120   0.61960   0.33700   Biso      1.000     H          0.311102  
         H25       1.0000    0.34360   0.96890   0.33600   Biso      1.000     H          0.327388  
         H26       1.0000    0.38100   0.66030   0.22800   Biso      1.000     H          0.16256900000000002           
         H27       1.0000    0.00370   0.08450   0.29180   Biso      1.000     H          0.201649  
         H28       1.0000    0.24440   0.38780   0.07460   Biso      1.000     H          0.181827  
         H29       1.0000    0.31200   0.26420   0.08680   Biso      1.000     H          0.192631  
         H30       1.0000    0.99340   0.22310   0.28990   Biso      1.000     H          0.198052  
         H31       1.0000    0.39770   0.37910   0.08690   Biso      1.000     H          0.20634499999999997           
         H32       1.0000    0.11900   0.16030   0.27200   Biso      1.000     H          0.16256900000000002           
         N1        1.0000    0.53340   0.37000   0.65990   Biso      1.000     N          -0.318166           
         N2        1.0000    0.33700   0.33970   0.68569   Biso      1.000     N          -0.44982799999999995          
         N3        1.0000    0.89050   0.18670   0.70905   Biso      1.000     N          -0.463947           
         N4        1.0000    0.71930   0.07060   0.68590   Biso      1.000     N          -0.31546  
         N5        1.0000    0.96660   0.87000   0.84010   Biso      1.000     N          -0.318166           
         N6        1.0000    0.16300   0.83970   0.81431   Biso      1.000     N          -0.44982799999999995          
         N7        1.0000    0.60950   0.68670   0.79095   Biso      1.000     N          -0.463947           
         N8        1.0000    0.78070   0.57060   0.81410   Biso      1.000     N          -0.315459           
         N9        1.0000    0.03340   0.13000   0.15990   Biso      1.000     N          -0.318166           
         N10       1.0000    0.46660   0.63000   0.34010   Biso      1.000     N          -0.318166           
         N11       1.0000    0.28070   0.92940   0.31410   Biso      1.000     N          -0.31546  
         N12       1.0000    0.10950   0.81330   0.29095   Biso      1.000     N          -0.463947           
         N13       1.0000    0.66300   0.66030   0.31431   Biso      1.000     N          -0.44982799999999995          
         N14       1.0000    0.21930   0.42940   0.18590   Biso      1.000     N          -0.31546  
         N15       1.0000    0.83700   0.16030   0.18569   Biso      1.000     N          -0.44982799999999995          
         N16       1.0000    0.39050   0.31330   0.20905   Biso      1.000     N          -0.463947           
         O1        1.0000    0.93930   0.13720   0.99949   Biso      1.000     O          -0.663748           
         O2        1.0000    0.67970   0.12520   0.03294   Biso      1.000     O          -0.791616           
         O3        1.0000    0.37520   0.33550   0.36941   Biso      1.000     O          -0.747926           
         O4        1.0000    0.52340   0.25650   0.31821   Biso      1.000     O          -0.543292           
         O5        1.0000    0.18440   0.51390   0.33958   Biso      1.000     O          -0.758786           
         O6        1.0000    0.07050   0.56030   0.25099   Biso      1.000     O          -0.597913           
         O7        1.0000    0.23160   0.69510   0.70870   Biso      1.000     O          -0.585465           
         O8        1.0000    0.12450   0.08590   0.05441   Biso      1.000     O          -0.6976359999999999           
         O9        1.0000    0.13260   0.52060   0.68913   Biso      1.000     O          -0.633317           
         O10       1.0000    0.34320   0.61320   0.81580   Biso      1.000     O          -0.618751           
         O11       1.0000    0.59780   0.17750   0.11606   Biso      1.000     O          -0.601491           
         O12       1.0000    0.72980   0.05540   0.30107   Biso      1.000     O          -0.590385           
         O13       1.0000    0.97660   0.75650   0.18179   Biso      1.000     O          -0.543292           
         O14       1.0000    0.63260   0.97940   0.18913   Biso      1.000     O          -0.633317           
         O15       1.0000    0.73160   0.80490   0.20870   Biso      1.000     O          -0.585465           
         O16       1.0000    0.42950   0.06030   0.24901   Biso      1.000     O          -0.597913           
         O17       1.0000    0.31560   0.01390   0.16042   Biso      1.000     O          -0.758786           
         O18       1.0000    0.65680   0.38680   0.18420   Biso      1.000     O          -0.618751           
         O19       1.0000    0.77020   0.55540   0.19893   Biso      1.000     O          -0.590385           
         O20       1.0000    0.37550   0.58590   0.44559   Biso      1.000     O          -0.6976359999999999           
         O21       1.0000    0.56070   0.63720   0.50051   Biso      1.000     O          -0.663748           
         O22       1.0000    0.82030   0.62520   0.46706   Biso      1.000     O          -0.791616           
         O23       1.0000    0.90220   0.67750   0.38394   Biso      1.000     O          -0.601491           
         O24       1.0000    0.12480   0.83550   0.13059   Biso      1.000     O          -0.747926           
         O25       1.0000    0.22980   0.44460   0.80107   Biso      1.000     O          -0.590385           
         O26       1.0000    0.84320   0.88680   0.31580   Biso      1.000     O          -0.618751           
         O27       1.0000    0.62450   0.41410   0.55441   Biso      1.000     O          -0.6976359999999999           
         O28       1.0000    0.76840   0.30490   0.29130   Biso      1.000     O          -0.585465           
         O29       1.0000    0.17970   0.37480   0.53294   Biso      1.000     O          -0.791616           
         O30       1.0000    0.86740   0.47940   0.31087   Biso      1.000     O          -0.633317           
         O31       1.0000    0.92950   0.43970   0.74901   Biso      1.000     O          -0.597913           
         O32       1.0000    0.81560   0.48610   0.66042   Biso      1.000     O          -0.758786           
         O33       1.0000    0.62480   0.66450   0.63059   Biso      1.000     O          -0.747926           
         O34       1.0000    0.47660   0.74350   0.68179   Biso      1.000     O          -0.543292           
         O35       1.0000    0.43930   0.36280   0.49949   Biso      1.000     O          -0.663748           
         O36       1.0000    0.32030   0.87480   0.96706   Biso      1.000     O          -0.791616           
         O37       1.0000    0.06070   0.86280   0.00051   Biso      1.000     O          -0.663748           
         O38       1.0000    0.87550   0.91410   0.94559   Biso      1.000     O          -0.6976359999999999           
         O39       1.0000    0.40220   0.82250   0.88394   Biso      1.000     O          -0.601491           
         O40       1.0000    0.15680   0.11320   0.68420   Biso      1.000     O          -0.618751           
         O41       1.0000    0.36740   0.02060   0.81087   Biso      1.000     O          -0.633317           
         O42       1.0000    0.26840   0.19510   0.79130   Biso      1.000     O          -0.585465           
         O43       1.0000    0.57050   0.93970   0.75099   Biso      1.000     O          -0.597913           
         O44       1.0000    0.68440   0.98610   0.83958   Biso      1.000     O          -0.758786           
         O45       1.0000    0.87520   0.16450   0.86941   Biso      1.000     O          -0.747926           
         O46       1.0000    0.02340   0.24350   0.81821   Biso      1.000     O          -0.543292           
         O47       1.0000    0.09780   0.32250   0.61606   Biso      1.000     O          -0.601491           
         O48       1.0000    0.27020   0.94460   0.69893   Biso      1.000     O          -0.590385           
         Sm1       1.0000    0.76069   0.58681   0.56417   Biso      1.000     Sm          2.2214840000000002  
         Sm2       1.0000    0.10973   0.31314   0.72597   Biso      1.000     Sm          1.9682279999999999  
         Sm3       1.0000    0.73931   0.08681   0.93583   Biso      1.000     Sm          2.2214840000000002  
         Sm4       1.0000    0.26069   0.91319   0.06417   Biso      1.000     Sm          2.2214840000000002  
         Sm5       1.0000    0.23931   0.41319   0.43583   Biso      1.000     Sm          2.2214840000000002  
         Sm6       1.0000    0.89027   0.68686   0.27403   Biso      1.000     Sm          1.9682279999999999  
         Sm7       1.0000    0.60973   0.18686   0.22597   Biso      1.000     Sm          1.9682279999999999  
         Sm8       1.0000    0.39027   0.81314   0.77403   Biso      1.000     Sm          1.968227 