
##########################################################################
#               Crystallographic Information Format file
#               Produced by PyCifRW module
#
#  This is a CIF file.  CIF has been adopted by the International
#  Union of Crystallography as the standard for data archiving and
#  transmission.
#
#  For information on this file format, follow the CIF links at
#  http://www.iucr.org
##########################################################################

data_image0

_cell_length_a                          9.423
_cell_length_b                          18.22
_cell_length_c                          19.28
_cell_angle_alpha                       90
_cell_angle_beta                        90
_cell_angle_gamma                       101.34
_symmetry_space_group_name_H-M          'P 1'
_symmetry_int_tables_number             1
loop_
  _symmetry_equiv_pos_as_xyz
         'x, y, z' 
loop_
  _atom_site_label
  _atom_site_occupancy
  _atom_site_fract_x
  _atom_site_fract_y
  _atom_site_fract_z
  _atom_site_thermal_displace_type
  _atom_site_B_iso_or_equiv
  _atom_site_type_symbol
  _atom_site_charge
         C1        1.0000    0.22210   0.50720   0.37190   Biso      1.000     C          0.172787  
         C2        1.0000    0.43000   0.32310   0.38500   Biso      1.000     C          0.21908000000000002           
         C3        1.0000    0.27150   0.34510   0.29970   Biso      1.000     C          0.432025  
         C4        1.0000    0.40470   0.33830   0.63130   Biso      1.000     C          0.212777  
         C5        1.0000    0.21470   0.42270   0.65930   Biso      1.000     C          -0.076697           
         C6        1.0000    0.21030   0.35940   0.69720   Biso      1.000     C          0.46138100000000004           
         C7        1.0000    0.33820   0.42590   0.39280   Biso      1.000     C          0.297768  
         C8        1.0000    0.23960   0.73420   0.26170   Biso      1.000     C          -0.168817           
         C9        1.0000    0.18910   0.51980   0.61090   Biso      1.000     C          0.158585  
         C10       1.0000    0.25630   0.40650   0.33300   Biso      1.000     C          -0.054658000000000005         
         C11       1.0000    0.31240   0.43910   0.60560   Biso      1.000     C          0.320404  
         C12       1.0000    0.30300   0.80660   0.26790   Biso      1.000     C          0.076798  
         C13       1.0000    0.26990   0.69710   0.20370   Biso      1.000     C          0.042102  
         C14       1.0000    0.34800   0.73740   0.15260   Biso      1.000     C          -0.145225           
         C15       1.0000    0.40600   0.81160   0.16580   Biso      1.000     C          0.049953  
         C16       1.0000    0.19770   0.61740   0.19260   Biso      1.000     C          0.5702020000000001  
         C17       1.0000    0.07000   0.17690   0.88500   Biso      1.000     C          0.219081  
         C18       1.0000    0.27790   0.99280   0.87190   Biso      1.000     C          0.172788  
         C19       1.0000    0.22850   0.15490   0.79970   Biso      1.000     C          0.432025  
         C20       1.0000    0.09530   0.16170   0.13130   Biso      1.000     C          0.212777  
         C21       1.0000    0.28530   0.07730   0.15930   Biso      1.000     C          -0.076698           
         C22       1.0000    0.28970   0.14060   0.19720   Biso      1.000     C          0.46138100000000004           
         C23       1.0000    0.16180   0.07410   0.89280   Biso      1.000     C          0.297767  
         C24       1.0000    0.30230   0.88260   0.69260   Biso      1.000     C          0.5702020000000001  
         C25       1.0000    0.15200   0.76260   0.65260   Biso      1.000     C          -0.145239           
         C26       1.0000    0.23010   0.80290   0.70370   Biso      1.000     C          0.042104  
         C27       1.0000    0.19700   0.69340   0.76790   Biso      1.000     C          0.076771  
         C28       1.0000    0.18760   0.06090   0.10560   Biso      1.000     C          0.320404  
         C29       1.0000    0.24370   0.09350   0.83300   Biso      1.000     C          -0.054658000000000005         
         C30       1.0000    0.09400   0.68840   0.66580   Biso      1.000     C          0.049954000000000005          
         C31       1.0000    0.69770   0.11740   0.30740   Biso      1.000     C          0.5702020000000001  
         C32       1.0000    0.84800   0.23740   0.34740   Biso      1.000     C          -0.145239           
         C33       1.0000    0.76990   0.19710   0.29630   Biso      1.000     C          0.042107  
         C34       1.0000    0.59400   0.18840   0.83420   Biso      1.000     C          0.049949  
         C35       1.0000    0.57000   0.67690   0.61500   Biso      1.000     C          0.21908000000000002           
         C36       1.0000    0.77790   0.49280   0.62810   Biso      1.000     C          0.172788  
         C37       1.0000    0.72850   0.65490   0.70030   Biso      1.000     C          0.432025  
         C38       1.0000    0.59530   0.66170   0.36870   Biso      1.000     C          0.212777  
         C39       1.0000    0.78530   0.57730   0.34070   Biso      1.000     C          -0.076697           
         C40       1.0000    0.78970   0.64060   0.30280   Biso      1.000     C          0.46138100000000004           
         C41       1.0000    0.66180   0.57410   0.60720   Biso      1.000     C          0.297767  
         C42       1.0000    0.76040   0.26580   0.73830   Biso      1.000     C          -0.168817           
         C43       1.0000    0.81090   0.48020   0.38910   Biso      1.000     C          0.158584  
         C44       1.0000    0.74370   0.59350   0.66700   Biso      1.000     C          -0.054658000000000005         
         C45       1.0000    0.68760   0.56090   0.39440   Biso      1.000     C          0.320404  
         C46       1.0000    0.69700   0.19340   0.73210   Biso      1.000     C          0.076798  
         C47       1.0000    0.73010   0.30290   0.79630   Biso      1.000     C          0.042102  
         C48       1.0000    0.65200   0.26260   0.84740   Biso      1.000     C          -0.14522100000000002          
         C49       1.0000    0.80230   0.38260   0.80740   Biso      1.000     C          0.5702020000000001  
         C50       1.0000    0.90600   0.31160   0.33420   Biso      1.000     C          0.049954000000000005          
         C51       1.0000    0.93000   0.82310   0.11500   Biso      1.000     C          0.21908000000000002           
         C52       1.0000    0.72210   0.00720   0.12810   Biso      1.000     C          0.172788  
         C53       1.0000    0.77150   0.84510   0.20030   Biso      1.000     C          0.432026  
         C54       1.0000    0.90470   0.83830   0.86870   Biso      1.000     C          0.212777  
         C55       1.0000    0.71470   0.92270   0.84070   Biso      1.000     C          -0.076698           
         C56       1.0000    0.71030   0.85940   0.80280   Biso      1.000     C          0.46138100000000004           
         C57       1.0000    0.83820   0.92590   0.10720   Biso      1.000     C          0.297767  
         C58       1.0000    0.73960   0.23420   0.23830   Biso      1.000     C          -0.168811           
         C59       1.0000    0.68910   0.01980   0.88910   Biso      1.000     C          0.158585  
         C60       1.0000    0.75630   0.90650   0.16700   Biso      1.000     C          -0.054658000000000005         
         C61       1.0000    0.81240   0.93910   0.89440   Biso      1.000     C          0.320404  
         C62       1.0000    0.80300   0.30660   0.23210   Biso      1.000     C          0.076799  
         C63       1.0000    0.31090   0.98020   0.11090   Biso      1.000     C          0.158585  
         C64       1.0000    0.26040   0.76580   0.76170   Biso      1.000     C          -0.168784           
         Cd1       1.0000    0.08148   0.92373   0.99290   Biso      1.000     Cd          0.38707199999999997           
         Cd2       1.0000    0.41852   0.57627   0.49290   Biso      1.000     Cd          0.38707199999999997           
         Cd3       1.0000    0.51271   0.02715   0.75684   Biso      1.000     Cd          0.698295  
         Cd4       1.0000    0.98729   0.47285   0.25684   Biso      1.000     Cd          0.698304  
         Cd5       1.0000    0.91852   0.07627   0.00710   Biso      1.000     Cd          0.387073  
         Cd6       1.0000    0.48729   0.97285   0.24316   Biso      1.000     Cd          0.698289  
         Cd7       1.0000    0.58148   0.42373   0.50710   Biso      1.000     Cd          0.38706799999999997           
         Cd8       1.0000    0.01271   0.52715   0.74316   Biso      1.000     Cd          0.698298  
         H1        1.0000    0.21690   0.28750   0.21610   Biso      1.000     H          0.330206  
         H2        1.0000    0.15470   0.35660   0.21930   Biso      1.000     H          0.33047600000000005           
         H3        1.0000    0.28670   0.82980   0.30920   Biso      1.000     H          0.06313200000000001           
         H4        1.0000    0.36170   0.71570   0.11010   Biso      1.000     H          0.134914  
         H5        1.0000    0.06140   0.35670   0.76040   Biso      1.000     H          0.331491  
         H6        1.0000    0.13820   0.29300   0.76720   Biso      1.000     H          0.328395  
         H7        1.0000    0.03510   0.66130   0.63200   Biso      1.000     H          0.077054  
         H8        1.0000    0.01090   0.20800   0.90180   Biso      1.000     H          0.053084000000000006          
         H9        1.0000    0.31090   0.94810   0.87580   Biso      1.000     H          0.054285  
         H10       1.0000    0.28310   0.21250   0.71610   Biso      1.000     H          0.330206  
         H11       1.0000    0.32290   0.78970   0.79570   Biso      1.000     H          0.12520799999999999           
         H12       1.0000    0.34630   0.93770   0.09890   Biso      1.000     H          0.043733999999999995          
         H13       1.0000    0.15370   0.56230   0.59890   Biso      1.000     H          0.043733999999999995          
         H14       1.0000    0.34530   0.14340   0.71930   Biso      1.000     H          0.33047600000000005           
         H15       1.0000    0.21330   0.67020   0.80920   Biso      1.000     H          0.063135  
         H16       1.0000    0.13830   0.78430   0.61010   Biso      1.000     H          0.134916  
         H17       1.0000    0.43860   0.14330   0.26040   Biso      1.000     H          0.331491  
         H18       1.0000    0.36180   0.20700   0.26720   Biso      1.000     H          0.328396  
         H19       1.0000    0.53510   0.16130   0.86800   Biso      1.000     H          0.077055  
         H20       1.0000    0.02530   0.19060   0.12480   Biso      1.000     H          0.047258999999999995          
         H21       1.0000    0.17710   0.71030   0.29570   Biso      1.000     H          0.125211  
         H22       1.0000    0.51090   0.70800   0.59820   Biso      1.000     H          0.053084000000000006          
         H23       1.0000    0.18910   0.55190   0.37580   Biso      1.000     H          0.054285  
         H24       1.0000    0.47470   0.30940   0.62480   Biso      1.000     H          0.047258  
         H25       1.0000    0.81090   0.44810   0.62420   Biso      1.000     H          0.054285  
         H26       1.0000    0.52530   0.69060   0.37520   Biso      1.000     H          0.047258999999999995          
         H27       1.0000    0.84630   0.43770   0.40110   Biso      1.000     H          0.043733  
         H28       1.0000    0.78310   0.71250   0.78390   Biso      1.000     H          0.330206  
         H29       1.0000    0.84530   0.64340   0.78070   Biso      1.000     H          0.33047600000000005           
         H30       1.0000    0.71330   0.17020   0.69080   Biso      1.000     H          0.06313300000000001           
         H31       1.0000    0.63830   0.28430   0.88990   Biso      1.000     H          0.134914  
         H32       1.0000    0.93860   0.64330   0.23960   Biso      1.000     H          0.331491  
         H33       1.0000    0.86180   0.70700   0.23280   Biso      1.000     H          0.328396  
         H34       1.0000    0.96490   0.33870   0.36800   Biso      1.000     H          0.077054  
         H35       1.0000    0.98910   0.79200   0.09820   Biso      1.000     H          0.053084000000000006          
         H36       1.0000    0.82290   0.28970   0.70430   Biso      1.000     H          0.12521   
         H37       1.0000    0.97470   0.80940   0.87520   Biso      1.000     H          0.047258999999999995          
         H38       1.0000    0.48910   0.29200   0.40180   Biso      1.000     H          0.053084000000000006          
         H39       1.0000    0.68910   0.05190   0.12420   Biso      1.000     H          0.054285  
         H40       1.0000    0.46490   0.83870   0.13200   Biso      1.000     H          0.077055  
         H41       1.0000    0.56140   0.85670   0.73960   Biso      1.000     H          0.331491  
         H42       1.0000    0.86170   0.21570   0.38990   Biso      1.000     H          0.134916  
         H43       1.0000    0.63820   0.79300   0.73280   Biso      1.000     H          0.328395  
         H44       1.0000    0.78670   0.32980   0.19080   Biso      1.000     H          0.06313400000000001           
         H45       1.0000    0.65470   0.85660   0.28070   Biso      1.000     H          0.33047600000000005           
         H46       1.0000    0.71690   0.78750   0.28390   Biso      1.000     H          0.330206  
         H47       1.0000    0.65370   0.06230   0.90110   Biso      1.000     H          0.043733999999999995          
         H48       1.0000    0.67710   0.21030   0.20430   Biso      1.000     H          0.12521   
         N1        1.0000    0.88340   0.34670   0.27560   Biso      1.000     N          -0.23802199999999998          
         N2        1.0000    0.63670   0.97880   0.83900   Biso      1.000     N          -0.304588           
         N3        1.0000    0.79860   0.99950   0.92460   Biso      1.000     N          -0.353123           
         N4        1.0000    0.90790   0.89550   0.90950   Biso      1.000     N          -0.34430700000000003          
         N5        1.0000    0.85230   0.80050   0.17270   Biso      1.000     N          -0.416446           
         N6        1.0000    0.80690   0.81800   0.81760   Biso      1.000     N          -0.42826899999999996          
         N7        1.0000    0.70640   0.82760   0.26260   Biso      1.000     N          -0.701611           
         N8        1.0000    0.67610   0.95920   0.17870   Biso      1.000     N          -0.313531           
         N9        1.0000    0.92880   0.88350   0.08140   Biso      1.000     N          -0.32155100000000003          
         N10       1.0000    0.59210   0.60450   0.40950   Biso      1.000     N          -0.34430700000000003          
         N11       1.0000    0.68410   0.51040   0.58360   Biso      1.000     N          -0.331021           
         N12       1.0000    0.82390   0.54080   0.67870   Biso      1.000     N          -0.31353400000000003          
         N13       1.0000    0.61660   0.15330   0.77560   Biso      1.000     N          -0.23802199999999998          
         N14       1.0000    0.70140   0.50050   0.42460   Biso      1.000     N          -0.353122           
         N15       1.0000    0.64770   0.69950   0.67270   Biso      1.000     N          -0.41644499999999995          
         N16       1.0000    0.69310   0.68200   0.31760   Biso      1.000     N          -0.42826899999999996          
         N17       1.0000    0.79360   0.67240   0.76260   Biso      1.000     N          -0.701611           
         N18       1.0000    0.86330   0.52120   0.33900   Biso      1.000     N          -0.304591           
         N19       1.0000    0.81590   0.98960   0.08360   Biso      1.000     N          -0.331023           
         N20       1.0000    0.57120   0.61650   0.58140   Biso      1.000     N          -0.32155100000000003          
         N21       1.0000    0.87220   0.66640   0.25310   Biso      1.000     N          -0.667821           
         N22       1.0000    0.62780   0.83360   0.75310   Biso      1.000     N          -0.667821           
         N23       1.0000    0.31590   0.48960   0.41640   Biso      1.000     N          -0.331022           
         N24       1.0000    0.13670   0.47880   0.66100   Biso      1.000     N          -0.304589           
         N25       1.0000    0.37220   0.16640   0.24690   Biso      1.000     N          -0.667821           
         N26       1.0000    0.18410   0.01040   0.91640   Biso      1.000     N          -0.331022           
         N27       1.0000    0.32390   0.04080   0.82130   Biso      1.000     N          -0.313533           
         N28       1.0000    0.11660   0.65330   0.72440   Biso      1.000     N          -0.238019           
         N29       1.0000    0.20140   0.00050   0.07540   Biso      1.000     N          -0.353123           
         N30       1.0000    0.42880   0.38350   0.41860   Biso      1.000     N          -0.32155  
         N31       1.0000    0.14770   0.19950   0.82730   Biso      1.000     N          -0.416446           
         N32       1.0000    0.19310   0.18200   0.18240   Biso      1.000     N          -0.42826899999999996          
         N33       1.0000    0.29360   0.17240   0.73740   Biso      1.000     N          -0.701611           
         N34       1.0000    0.09210   0.10450   0.09050   Biso      1.000     N          -0.344308           
         N35       1.0000    0.07120   0.11650   0.91860   Biso      1.000     N          -0.32155100000000003          
         N36       1.0000    0.36330   0.02120   0.16100   Biso      1.000     N          -0.304587           
         N37       1.0000    0.30690   0.31800   0.68240   Biso      1.000     N          -0.42826899999999996          
         N38       1.0000    0.35230   0.30050   0.32730   Biso      1.000     N          -0.41644499999999995          
         N39       1.0000    0.40790   0.39550   0.59050   Biso      1.000     N          -0.34430700000000003          
         N40       1.0000    0.20640   0.32760   0.23740   Biso      1.000     N          -0.701611           
         N41       1.0000    0.38340   0.84670   0.22440   Biso      1.000     N          -0.23802199999999998          
         N42       1.0000    0.17610   0.45920   0.32130   Biso      1.000     N          -0.313537           
         N43       1.0000    0.12780   0.33360   0.74690   Biso      1.000     N          -0.667821           
         N44       1.0000    0.29860   0.49950   0.57540   Biso      1.000     N          -0.353123           
         O1        1.0000    0.90140   0.40950   0.76660   Biso      1.000     O          -0.56695  
         O2        1.0000    0.40140   0.90950   0.73340   Biso      1.000     O          -0.56695  
         O3        1.0000    0.25800   0.91730   0.64470   Biso      1.000     O          -0.585832           
         O4        1.0000    0.09860   0.59050   0.23340   Biso      1.000     O          -0.566951           
         O5        1.0000    0.24200   0.58270   0.14470   Biso      1.000     O          -0.585831           
         O6        1.0000    0.59860   0.09050   0.26660   Biso      1.000     O          -0.566948           
         O7        1.0000    0.74200   0.08270   0.35530   Biso      1.000     O          -0.585832           
         O8        1.0000    0.75800   0.41730   0.85530   Biso      1.000     O          -0.585832 