
##########################################################################
#               Crystallographic Information Format file
#               Produced by PyCifRW module
#
#  This is a CIF file.  CIF has been adopted by the International
#  Union of Crystallography as the standard for data archiving and
#  transmission.
#
#  For information on this file format, follow the CIF links at
#  http://www.iucr.org
##########################################################################

data_image0

_cell_length_a                          17.5176
_cell_length_b                          17.5176
_cell_length_c                          17.5176
_cell_angle_alpha                       95.7188
_cell_angle_beta                        116.755
_cell_angle_gamma                       116.755
_symmetry_space_group_name_H-M          'P 1'
_symmetry_int_tables_number             1
loop_
  _symmetry_equiv_pos_as_xyz
         'x, y, z' 
loop_
  _atom_site_label
  _atom_site_occupancy
  _atom_site_fract_x
  _atom_site_fract_y
  _atom_site_fract_z
  _atom_site_thermal_displace_type
  _atom_site_B_iso_or_equiv
  _atom_site_type_symbol
  _atom_site_charge
         C1        1.0000    0.74160   0.88200   0.03560   Biso      1.000     C          -0.080228           
         C2        1.0000    0.15360   0.03560   0.79400   Biso      1.000     C          -0.083559           
         C3        1.0000    0.25000   0.12500   0.87500   Biso      1.000     C          0.078942  
         C4        1.0000    0.91080   0.37960   0.09380   Biso      1.000     C          0.11776   
         C5        1.0000    0.64940   0.83120   0.75960   Biso      1.000     C          0.138942  
         C6        1.0000    0.66900   0.78300   0.52620   Biso      1.000     C          0.533953  
         C7        1.0000    0.58920   0.68300   0.46880   Biso      1.000     C          0.11776   
         C8        1.0000    0.02050   0.71870   0.70940   Biso      1.000     C          0.102928  
         C9        1.0000    0.59400   0.62710   0.41430   Biso      1.000     C          -0.113138           
         C10       1.0000    0.50930   0.69820   0.71870   Biso      1.000     C          0.102905  
         C11       1.0000    0.43060   0.50290   0.37370   Biso      1.000     C          -0.142144           
         C12       1.0000    0.43200   0.56270   0.43190   Biso      1.000     C          0.130217  
         C13       1.0000    0.35080   0.53950   0.45250   Biso      1.000     C          0.555682  
         C14       1.0000    0.75840   0.79400   0.14040   Biso      1.000     C          -0.080229           
         C15       1.0000    0.99070   0.70940   0.18890   Biso      1.000     C          0.10291   
         C16       1.0000    0.51200   0.53110   0.36570   Biso      1.000     C          -0.021605           
         C17       1.0000    0.96250   0.76960   0.17110   Biso      1.000     C          -0.257144           
         C18       1.0000    0.09850   0.80710   0.76960   Biso      1.000     C          -0.257104           
         C19       1.0000    0.00150   0.85300   0.66590   Biso      1.000     C          -0.287075           
         C20       1.0000    0.57160   0.18180   0.83120   Biso      1.000     C          0.138979  
         C21       1.0000    0.49850   0.16440   0.85150   Biso      1.000     C          -0.287069           
         C22       1.0000    0.41270   0.16050   0.78900   Biso      1.000     C          0.309566  
         C23       1.0000    0.40150   0.17110   0.70860   Biso      1.000     C          -0.257114           
         C24       1.0000    0.47950   0.18890   0.69820   Biso      1.000     C          0.102943  
         C25       1.0000    0.34640   0.14040   0.88200   Biso      1.000     C          -0.083561           
         C26       1.0000    0.08730   0.87630   0.74780   Biso      1.000     C          0.309568  
         C27       1.0000    0.91300   0.45250   0.60170   Biso      1.000     C          0.55568   
         C28       1.0000    0.87080   0.37370   0.44310   Biso      1.000     C          -0.142127           
         C29       1.0000    0.83460   0.36570   0.35370   Biso      1.000     C          -0.021614           
         C30       1.0000    0.78720   0.41430   0.32030   Biso      1.000     C          -0.11315  
         C31       1.0000    0.78580   0.46880   0.37960   Biso      1.000     C          0.117774  
         C32       1.0000    0.74320   0.52620   0.35720   Biso      1.000     C          0.533978  
         C33       1.0000    0.92840   0.75960   0.61020   Biso      1.000     C          0.13898   
         C34       1.0000    0.86920   0.43190   0.49990   Biso      1.000     C          0.130216  
         C35       1.0000    0.75680   0.11400   0.78300   Biso      1.000     C          0.533958  
         C36       1.0000    0.87150   0.74780   0.16050   Biso      1.000     C          0.309473  
         C37       1.0000    0.85060   0.61020   0.18180   Biso      1.000     C          0.138941  
         C38       1.0000    0.21280   0.58570   0.67970   Biso      1.000     C          -0.113149           
         C39       1.0000    0.21420   0.53120   0.62040   Biso      1.000     C          0.117773  
         C40       1.0000    0.25680   0.47380   0.64280   Biso      1.000     C          0.533978  
         C41       1.0000    0.07160   0.24040   0.38980   Biso      1.000     C          0.138981  
         C42       1.0000    0.99850   0.14700   0.33410   Biso      1.000     C          -0.287075           
         C43       1.0000    0.91270   0.12370   0.25220   Biso      1.000     C          0.309566  
         C44       1.0000    0.16540   0.63430   0.64630   Biso      1.000     C          -0.021622           
         C45       1.0000    0.90150   0.19290   0.23040   Biso      1.000     C          -0.257111           
         C46       1.0000    0.84640   0.96440   0.20600   Biso      1.000     C          -0.083559           
         C47       1.0000    0.14920   0.60170   0.18870   Biso      1.000     C          0.555685  
         C48       1.0000    0.06800   0.49990   0.13070   Biso      1.000     C          0.13021   
         C49       1.0000    0.06940   0.44310   0.07230   Biso      1.000     C          -0.142133           
         C50       1.0000    0.98800   0.35370   0.01910   Biso      1.000     C          -0.02161  
         C51       1.0000    0.90600   0.32030   0.03310   Biso      1.000     C          -0.11314  
         C52       1.0000    0.97950   0.28130   0.29060   Biso      1.000     C          0.102937  
         C53       1.0000    0.81290   0.66590   0.16440   Biso      1.000     C          -0.287046           
         C54       1.0000    0.12920   0.62630   0.55690   Biso      1.000     C          -0.142119           
         C55       1.0000    0.08700   0.54750   0.39830   Biso      1.000     C          0.55568   
         C56       1.0000    0.75000   0.87500   0.12500   Biso      1.000     C          0.078942  
         C57       1.0000    0.41300   0.81130   0.46050   Biso      1.000     C          0.555681  
         C58       1.0000    0.36920   0.86930   0.43730   Biso      1.000     C          0.130211  
         C59       1.0000    0.37080   0.92770   0.49710   Biso      1.000     C          -0.142126           
         C60       1.0000    0.33460   0.98090   0.46890   Biso      1.000     C          -0.021611           
         C61       1.0000    0.28720   0.96690   0.37290   Biso      1.000     C          -0.113149           
         C62       1.0000    0.13080   0.56810   0.50010   Biso      1.000     C          0.130215  
         C63       1.0000    0.28580   0.90620   0.31700   Biso      1.000     C          0.117765  
         C64       1.0000    0.42840   0.81820   0.16880   Biso      1.000     C          0.138979  
         C65       1.0000    0.50150   0.83560   0.14850   Biso      1.000     C          -0.287069           
         C66       1.0000    0.58730   0.83950   0.21100   Biso      1.000     C          0.309566  
         C67       1.0000    0.59850   0.82890   0.29140   Biso      1.000     C          -0.257114           
         C68       1.0000    0.52050   0.81110   0.30180   Biso      1.000     C          0.102943  
         C69       1.0000    0.65360   0.85960   0.11800   Biso      1.000     C          -0.083561           
         C70       1.0000    0.24320   0.88600   0.21700   Biso      1.000     C          0.533957  
         C71       1.0000    0.71420   0.09380   0.68300   Biso      1.000     C          0.117757  
         C72       1.0000    0.83100   0.35720   0.11400   Biso      1.000     C          0.533973  
         C73       1.0000    0.66540   0.01910   0.53110   Biso      1.000     C          -0.021619           
         C74       1.0000    0.03750   0.23040   0.82890   Biso      1.000     C          -0.257154           
         C75       1.0000    0.53750   0.70860   0.80710   Biso      1.000     C          -0.257146           
         C76       1.0000    0.62850   0.78900   0.87630   Biso      1.000     C          0.309492  
         C77       1.0000    0.68710   0.85150   0.85300   Biso      1.000     C          -0.287051           
         C78       1.0000    0.18710   0.33410   0.83560   Biso      1.000     C          -0.287052           
         C79       1.0000    0.14940   0.38980   0.81820   Biso      1.000     C          0.138942  
         C80       1.0000    0.00930   0.29060   0.81110   Biso      1.000     C          0.102919  
         C81       1.0000    0.16900   0.64280   0.88600   Biso      1.000     C          0.533973  
         C82       1.0000    0.09400   0.67970   0.96690   Biso      1.000     C          -0.113146           
         C83       1.0000    0.01200   0.64630   0.98090   Biso      1.000     C          -0.021617           
         C84       1.0000    0.93060   0.55690   0.92770   Biso      1.000     C          -0.142131           
         C85       1.0000    0.93200   0.50010   0.86930   Biso      1.000     C          0.130215  
         C86       1.0000    0.85080   0.39830   0.81130   Biso      1.000     C          0.555684  
         C87       1.0000    0.71280   0.03310   0.62710   Biso      1.000     C          -0.11314  
         C88       1.0000    0.08920   0.62040   0.90620   Biso      1.000     C          0.117767  
         C89       1.0000    0.24160   0.20600   0.85960   Biso      1.000     C          -0.080229           
         C90       1.0000    0.12850   0.25220   0.83950   Biso      1.000     C          0.30948   
         C91       1.0000    0.56800   0.43730   0.56810   Biso      1.000     C          0.130211  
         C92       1.0000    0.62920   0.07230   0.50290   Biso      1.000     C          -0.142124           
         C93       1.0000    0.63080   0.13070   0.56270   Biso      1.000     C          0.130215  
         C94       1.0000    0.58700   0.18870   0.53950   Biso      1.000     C          0.555681  
         C95       1.0000    0.25840   0.11800   0.96440   Biso      1.000     C          -0.080228           
         C96       1.0000    0.49070   0.30180   0.28130   Biso      1.000     C          0.102905  
         C97       1.0000    0.46250   0.29140   0.19290   Biso      1.000     C          -0.257147           
         C98       1.0000    0.37150   0.21100   0.12370   Biso      1.000     C          0.309492  
         C99       1.0000    0.31290   0.14850   0.14700   Biso      1.000     C          -0.287051           
         C100      1.0000    0.64920   0.46050   0.54750   Biso      1.000     C          0.555683  
         C101      1.0000    0.35060   0.16880   0.24040   Biso      1.000     C          0.138942  
         C102      1.0000    0.33100   0.21700   0.47380   Biso      1.000     C          0.533953  
         C103      1.0000    0.41080   0.31700   0.53120   Biso      1.000     C          0.117759  
         C104      1.0000    0.40600   0.37290   0.58570   Biso      1.000     C          -0.113137           
         C105      1.0000    0.48800   0.46890   0.63430   Biso      1.000     C          -0.021614           
         C106      1.0000    0.56940   0.49710   0.62630   Biso      1.000     C          -0.14213  
         H1        1.0000    0.47350   0.19990   0.64560   Biso      1.000     H          0.089419  
         H2        1.0000    0.34290   0.16630   0.66320   Biso      1.000     H          0.158724  
         H3        1.0000    0.50760   0.15570   0.90570   Biso      1.000     H          0.151422  
         H4        1.0000    0.73570   0.93320   0.02590   Biso      1.000     H          0.104535  
         H5        1.0000    0.40730   0.19750   0.93320   Biso      1.000     H          0.106575  
         H6        1.0000    0.89700   0.33930   0.46590   Biso      1.000     H          0.129737  
         H7        1.0000    0.35350   0.08990   0.89220   Biso      1.000     H          0.102407  
         H8        1.0000    0.80230   0.89220   0.03870   Biso      1.000     H          0.102534  
         H9        1.0000    0.76430   0.79020   0.19750   Biso      1.000     H          0.104536  
         H10       1.0000    0.49690   0.66320   0.82030   Biso      1.000     H          0.15872   
         H11       1.0000    0.75000   0.90570   0.89810   Biso      1.000     H          0.151402  
         H12       1.0000    0.68830   0.87460   0.74370   Biso      1.000     H          0.101034  
         H13       1.0000    0.64950   0.65050   0.40840   Biso      1.000     H          0.135844  
         H14       1.0000    0.51420   0.48990   0.33030   Biso      1.000     H          0.119469  
         H15       1.0000    0.37340   0.44230   0.33930   Biso      1.000     H          0.129741  
         H16       1.0000    0.63090   0.18630   0.87460   Biso      1.000     H          0.101048  
         H17       1.0000    0.69770   0.73640   0.08990   Biso      1.000     H          0.102533  
         H18       1.0000    0.44570   0.64560   0.67210   Biso      1.000     H          0.089423  
         H19       1.0000    0.74210   0.00100   0.65050   Biso      1.000     H          0.135836  
         H20       1.0000    0.25000   0.35190   0.84430   Biso      1.000     H          0.151401  
         H21       1.0000    0.60300   0.06890   0.44230   Biso      1.000     H          0.129738  
         H22       1.0000    0.87340   0.53410   0.93110   Biso      1.000     H          0.129738  
         H23       1.0000    0.01420   0.68390   0.02430   Biso      1.000     H          0.119471  
         H24       1.0000    0.14950   0.74110   0.99900   Biso      1.000     H          0.135845  
         H25       1.0000    0.18830   0.44460   0.81370   Biso      1.000     H          0.101036  
         H26       1.0000    0.05430   0.72640   0.19990   Biso      1.000     H          0.089421  
         H27       1.0000    0.99690   0.17660   0.83370   Biso      1.000     H          0.158722  
         H28       1.0000    0.94570   0.27360   0.80010   Biso      1.000     H          0.08942   
         H29       1.0000    0.30230   0.26360   0.91010   Biso      1.000     H          0.102534  
         H30       1.0000    0.65960   0.97570   0.48990   Biso      1.000     H          0.119469  
         H31       1.0000    0.23570   0.20980   0.80250   Biso      1.000     H          0.104536  
         H32       1.0000    0.48580   0.51010   0.66970   Biso      1.000     H          0.119469  
         H33       1.0000    0.35050   0.34950   0.59160   Biso      1.000     H          0.135844  
         H34       1.0000    0.31170   0.12540   0.25630   Biso      1.000     H          0.101034  
         H35       1.0000    0.25000   0.09430   0.10190   Biso      1.000     H          0.151402  
         H36       1.0000    0.50310   0.33680   0.17970   Biso      1.000     H          0.15872   
         H37       1.0000    0.55430   0.35440   0.32790   Biso      1.000     H          0.089423  
         H38       1.0000    0.19770   0.10780   0.96130   Biso      1.000     H          0.102534  
         H39       1.0000    0.26430   0.06680   0.97410   Biso      1.000     H          0.104535  
         H40       1.0000    0.62660   0.55770   0.66070   Biso      1.000     H          0.12974   
         H41       1.0000    0.00310   0.82340   0.16630   Biso      1.000     H          0.158722  
         H42       1.0000    0.64650   0.91010   0.10780   Biso      1.000     H          0.102407  
         H43       1.0000    0.81170   0.55540   0.18630   Biso      1.000     H          0.101036  
         H44       1.0000    0.02650   0.67210   0.72640   Biso      1.000     H          0.089421  
         H45       1.0000    0.15710   0.82030   0.82340   Biso      1.000     H          0.158725  
         H46       1.0000    0.99240   0.89810   0.64810   Biso      1.000     H          0.151422  
         H47       1.0000    0.86910   0.74370   0.55540   Biso      1.000     H          0.101049  
         H48       1.0000    0.75790   0.40840   0.25890   Biso      1.000     H          0.135837  
         H49       1.0000    0.75000   0.64810   0.15570   Biso      1.000     H          0.151401  
         H50       1.0000    0.84040   0.33030   0.31610   Biso      1.000     H          0.119467  
         H51       1.0000    0.39700   0.93110   0.55770   Biso      1.000     H          0.129738  
         H52       1.0000    0.34040   0.02430   0.51010   Biso      1.000     H          0.119468  
         H53       1.0000    0.14650   0.03870   0.73640   Biso      1.000     H          0.102408  
         H54       1.0000    0.36910   0.81370   0.12540   Biso      1.000     H          0.101048  
         H55       1.0000    0.49240   0.84430   0.09430   Biso      1.000     H          0.151423  
         H56       1.0000    0.65710   0.83370   0.33680   Biso      1.000     H          0.158724  
         H57       1.0000    0.25790   0.99900   0.34950   Biso      1.000     H          0.135837  
         H58       1.0000    0.59270   0.80250   0.06680   Biso      1.000     H          0.106575  
         H59       1.0000    0.85050   0.25890   0.00100   Biso      1.000     H          0.135845  
         H60       1.0000    0.98580   0.31610   0.97570   Biso      1.000     H          0.119471  
         H61       1.0000    0.12660   0.46590   0.06890   Biso      1.000     H          0.129737  
         H62       1.0000    0.90730   0.97410   0.20980   Biso      1.000     H          0.106573  
         H63       1.0000    0.85350   0.96130   0.26360   Biso      1.000     H          0.102408  
         H64       1.0000    0.52650   0.80010   0.35440   Biso      1.000     H          0.089419  
         H65       1.0000    0.09270   0.02590   0.79020   Biso      1.000     H          0.106573  
         H66       1.0000    0.84290   0.17970   0.17660   Biso      1.000     H          0.158726  
         H67       1.0000    0.00760   0.10190   0.35190   Biso      1.000     H          0.151422  
         H68       1.0000    0.13090   0.25630   0.44460   Biso      1.000     H          0.101049  
         H69       1.0000    0.24210   0.59160   0.74110   Biso      1.000     H          0.135837  
         H70       1.0000    0.15960   0.66970   0.68390   Biso      1.000     H          0.119467  
         H71       1.0000    0.10300   0.66070   0.53410   Biso      1.000     H          0.129737  
         H72       1.0000    0.97350   0.32790   0.27360   Biso      1.000     H          0.08942   
         N1        1.0000    0.06380   0.37070   0.80790   Biso      1.000     N          -0.220462           
         N2        1.0000    0.00870   0.53220   0.86010   Biso      1.000     N          -0.279004           
         N3        1.0000    0.56280   0.19210   0.75590   Biso      1.000     N          -0.220438           
         N4        1.0000    0.67210   0.13990   0.64860   Biso      1.000     N          -0.279002           
         N5        1.0000    0.93720   0.69310   0.62930   Biso      1.000     N          -0.220437           
         N6        1.0000    0.82790   0.47650   0.46780   Biso      1.000     N          -0.27901  
         N7        1.0000    0.43620   0.24410   0.30690   Biso      1.000     N          -0.220459           
         N8        1.0000    0.43720   0.80790   0.24410   Biso      1.000     N          -0.220438           
         N9        1.0000    0.56380   0.75590   0.69310   Biso      1.000     N          -0.220459           
         N10       1.0000    0.99130   0.46780   0.13990   Biso      1.000     N          -0.279004           
         N11       1.0000    0.93620   0.62930   0.19210   Biso      1.000     N          -0.220461           
         N12       1.0000    0.17210   0.52350   0.53220   Biso      1.000     N          -0.27901  
         N13       1.0000    0.06280   0.30690   0.37070   Biso      1.000     N          -0.220438           
         N14       1.0000    0.32790   0.86010   0.35140   Biso      1.000     N          -0.279002           
         N15       1.0000    0.50870   0.64860   0.47650   Biso      1.000     N          -0.279002           
         N16       1.0000    0.49130   0.35140   0.52350   Biso      1.000     N          -0.279001           
         O1        1.0000    0.16470   0.96294   0.80964   Biso      1.000     O          -0.176741           
         O2        1.0000    0.45560   0.81677   0.54297   Biso      1.000     O          -0.516132           
         O3        1.0000    0.65160   0.82370   0.57310   Biso      1.000     O          -0.557858           
         O4        1.0000    0.27380   0.45703   0.41263   Biso      1.000     O          -0.516143           
         O5        1.0000    0.36440   0.60263   0.50603   Biso      1.000     O          -0.529577           
         O6        1.0000    0.84670   0.80964   0.14494   Biso      1.000     O          -0.176987           
         O7        1.0000    0.75520   0.27420   0.07540   Biso      1.000     O          -0.584472           
         O8        1.0000    0.84840   0.42150   0.17210   Biso      1.000     O          -0.55786  
         O9        1.0000    0.22620   0.63883   0.18323   Biso      1.000     O          -0.516144           
         O10       1.0000    0.13560   0.64163   0.23823   Biso      1.000     O          -0.529581           
         O11       1.0000    0.30120   0.48100   0.72580   Biso      1.000     O          -0.584471           
         O12       1.0000    0.25060   0.42690   0.57850   Biso      1.000     O          -0.557858           
         O13       1.0000    0.04440   0.58737   0.36117   Biso      1.000     O          -0.516129           
         O14       1.0000    0.09660   0.49397   0.35837   Biso      1.000     O          -0.529585           
         O15       1.0000    0.66470   0.85506   0.20176   Biso      1.000     O          -0.17674  
         O16       1.0000    0.19880   0.92460   0.17980   Biso      1.000     O          -0.584451           
         O17       1.0000    0.24940   0.82790   0.17630   Biso      1.000     O          -0.557857           
         O18       1.0000    0.40340   0.76177   0.39737   Biso      1.000     O          -0.529588           
         O19       1.0000    0.83530   0.03706   0.19036   Biso      1.000     O          -0.17674  
         O20       1.0000    0.65330   0.79824   0.96294   Biso      1.000     O          -0.177003           
         O21       1.0000    0.34670   0.20176   0.03706   Biso      1.000     O          -0.177002           
         O22       1.0000    0.15160   0.57850   0.82790   Biso      1.000     O          -0.557859           
         O23       1.0000    0.24480   0.72580   0.92460   Biso      1.000     O          -0.584472           
         O24       1.0000    0.15330   0.19036   0.85506   Biso      1.000     O          -0.176988           
         O25       1.0000    0.63560   0.39737   0.49397   Biso      1.000     O          -0.529577           
         O26       1.0000    0.72620   0.54297   0.58737   Biso      1.000     O          -0.516143           
         O27       1.0000    0.34840   0.17630   0.42690   Biso      1.000     O          -0.557858           
         O28       1.0000    0.25520   0.17980   0.48100   Biso      1.000     O          -0.584452           
         O29       1.0000    0.59660   0.23823   0.60263   Biso      1.000     O          -0.529588           
         O30       1.0000    0.77380   0.36117   0.81677   Biso      1.000     O          -0.516144           
         O31       1.0000    0.54440   0.18323   0.45703   Biso      1.000     O          -0.516132           
         O32       1.0000    0.80120   0.07540   0.82020   Biso      1.000     O          -0.584452           
         O33       1.0000    0.33530   0.14494   0.79824   Biso      1.000     O          -0.17674  
         O34       1.0000    0.90340   0.50603   0.64163   Biso      1.000     O          -0.529585           
         O35       1.0000    0.95560   0.41263   0.63883   Biso      1.000     O          -0.516129           
         O36       1.0000    0.74940   0.57310   0.42150   Biso      1.000     O          -0.557858           
         O37       1.0000    0.69880   0.51900   0.27420   Biso      1.000     O          -0.584471           
         O38       1.0000    0.74480   0.82020   0.51900   Biso      1.000     O          -0.584452           
         O39       1.0000    0.75060   0.17210   0.82370   Biso      1.000     O          -0.557857           
         O40       1.0000    0.86440   0.35837   0.76177   Biso      1.000     O          -0.52958  
         Zn1       1.0000    0.82146   0.56040   0.54908   Biso      1.000     Zn          0.764891  
         Zn2       1.0000    0.67854   0.22762   0.73894   Biso      1.000     Zn          0.764891  
         Zn3       1.0000    0.48868   0.26106   0.43960   Biso      1.000     Zn          0.76489   
         Zn4       1.0000    0.98868   0.54908   0.22762   Biso      1.000     Zn          0.764889  
         Zn5       1.0000    0.32146   0.77238   0.26106   Biso      1.000     Zn          0.76489   
         Zn6       1.0000    0.17854   0.43960   0.45092   Biso      1.000     Zn          0.764891  
         Zn7       1.0000    0.51132   0.73894   0.56040   Biso      1.000     Zn          0.76489   
         Zn8       1.0000    0.01132   0.45092   0.77238   Biso      1.000     Zn          0.764889 