
##########################################################################
#               Crystallographic Information Format file
#               Produced by PyCifRW module
#
#  This is a CIF file.  CIF has been adopted by the International
#  Union of Crystallography as the standard for data archiving and
#  transmission.
#
#  For information on this file format, follow the CIF links at
#  http://www.iucr.org
##########################################################################

data_image0

_cell_length_a                          14.0869
_cell_length_b                          15.1333
_cell_length_c                          15.1402
_cell_angle_alpha                       86.517
_cell_angle_beta                        87.286
_cell_angle_gamma                       86.896
_symmetry_space_group_name_H-M          'P 1'
_symmetry_int_tables_number             1
loop_
  _symmetry_equiv_pos_as_xyz
         'x, y, z' 
loop_
  _atom_site_label
  _atom_site_occupancy
  _atom_site_fract_x
  _atom_site_fract_y
  _atom_site_fract_z
  _atom_site_thermal_displace_type
  _atom_site_B_iso_or_equiv
  _atom_site_type_symbol
  _atom_site_charge
         C1        1.0000    0.49750   0.35000   0.22170   Biso      1.000     C          0.097386  
         C2        1.0000    0.50180   0.42620   0.08840   Biso      1.000     C          0.103022  
         C3        1.0000    0.59940   0.42650   0.08810   Biso      1.000     C          -0.178796           
         C4        1.0000    0.59540   0.34910   0.22570   Biso      1.000     C          -0.184516           
         C5        1.0000    0.28330   0.79370   0.16240   Biso      1.000     C          -0.0953   
         C6        1.0000    0.20190   0.84270   0.17500   Biso      1.000     C          0.009819  
         C7        1.0000    0.20420   0.94030   0.17950   Biso      1.000     C          0.200252  
         C8        1.0000    0.12360   0.99170   0.19590   Biso      1.000     C          -0.181332           
         C9        1.0000    0.28770   0.06930   0.16110   Biso      1.000     C          0.018993  
         C10       1.0000    0.40460   0.65090   0.77430   Biso      1.000     C          -0.184524           
         C11       1.0000    0.40060   0.57350   0.91190   Biso      1.000     C          -0.178807           
         C12       1.0000    0.49820   0.57380   0.91160   Biso      1.000     C          0.103033  
         C13       1.0000    0.50250   0.65000   0.77830   Biso      1.000     C          0.097394  
         C14       1.0000    0.87640   0.00830   0.80410   Biso      1.000     C          -0.181342           
         C15       1.0000    0.87450   0.91760   0.80690   Biso      1.000     C          -0.072408           
         C16       1.0000    0.88100   0.19860   0.82110   Biso      1.000     C          -0.118729           
         C17       1.0000    0.79580   0.05970   0.82050   Biso      1.000     C          0.200262  
         C18       1.0000    0.79810   0.15730   0.82500   Biso      1.000     C          0.00981   
         C19       1.0000    0.71670   0.20630   0.83760   Biso      1.000     C          -0.095275           
         C20       1.0000    0.88210   0.28750   0.82860   Biso      1.000     C          -0.130321           
         C21       1.0000    0.75430   0.38730   0.15700   Biso      1.000     C          0.107301  
         C22       1.0000    0.80903   0.39220   0.07900   Biso      1.000     C          -0.172121           
         C23       1.0000    0.19900   0.66069   0.16200   Biso      1.000     C          -0.003017           
         C24       1.0000    0.89890   0.38330   0.23468   Biso      1.000     C          0.104866  
         C25       1.0000    0.28110   0.70440   0.15670   Biso      1.000     C          -0.154017           
         C26       1.0000    0.11380   0.40970   0.47640   Biso      1.000     C          -0.102237           
         C27       1.0000    0.11660   0.40850   0.56640   Biso      1.000     C          -0.133824           
         C28       1.0000    0.27640   0.36990   0.55840   Biso      1.000     C          -0.144752           
         C29       1.0000    0.20920   0.12290   0.17340   Biso      1.000     C          -0.051931           
         C30       1.0000    0.27430   0.36970   0.46860   Biso      1.000     C          -0.106871           
         C31       1.0000    0.19720   0.38850   0.60820   Biso      1.000     C          0.054461  
         C32       1.0000    0.19930   0.38720   0.70560   Biso      1.000     C          0.195136  
         C33       1.0000    0.64856   0.38810   0.15601   Biso      1.000     C          0.122534  
         C34       1.0000    0.71230   0.93070   0.83890   Biso      1.000     C          0.018992  
         C35       1.0000    0.19214   0.39210   0.32644   Biso      1.000     C          0.605395  
         C36       1.0000    0.28720   0.37970   0.83630   Biso      1.000     C          -0.063106           
         C37       1.0000    0.21130   0.22184   0.16770   Biso      1.000     C          0.609885  
         C38       1.0000    0.28530   0.37930   0.74681   Biso      1.000     C          -0.194508           
         C39       1.0000    0.19798   0.56296   0.15429   Biso      1.000     C          0.597726  
         C40       1.0000    0.20573   0.39090   0.98684   Biso      1.000     C          0.601374  
         C41       1.0000    0.90686   0.39380   0.08240   Biso      1.000     C          0.114263  
         C42       1.0000    0.80084   0.38170   0.23600   Biso      1.000     C          -0.186708           
         C43       1.0000    0.19340   0.39110   0.42513   Biso      1.000     C          -0.014761           
         C44       1.0000    0.20430   0.38839   0.88855   Biso      1.000     C          -0.08721  
         C45       1.0000    0.11830   0.39580   0.84568   Biso      1.000     C          0.057631  
         C46       1.0000    0.71890   0.29560   0.84330   Biso      1.000     C          -0.154034           
         C47       1.0000    0.11790   0.71250   0.17140   Biso      1.000     C          -0.130314           
         C48       1.0000    0.88340   0.59150   0.43360   Biso      1.000     C          -0.133843           
         C49       1.0000    0.88620   0.59030   0.52360   Biso      1.000     C          -0.102217           
         C50       1.0000    0.80100   0.33931   0.83800   Biso      1.000     C          -0.002992           
         C51       1.0000    0.10110   0.61670   0.76532   Biso      1.000     C          0.104866  
         C52       1.0000    0.19097   0.60780   0.92100   Biso      1.000     C          -0.172122           
         C53       1.0000    0.79570   0.61161   0.11145   Biso      1.000     C          -0.087216           
         C54       1.0000    0.80660   0.60890   0.57487   Biso      1.000     C          -0.014774           
         C55       1.0000    0.19916   0.61830   0.76400   Biso      1.000     C          -0.186708           
         C56       1.0000    0.09314   0.60620   0.91760   Biso      1.000     C          0.114263  
         C57       1.0000    0.24570   0.61270   0.84300   Biso      1.000     C          0.107302  
         C58       1.0000    0.12550   0.08240   0.19310   Biso      1.000     C          -0.072404           
         C59       1.0000    0.79427   0.60910   0.01316   Biso      1.000     C          0.601375  
         C60       1.0000    0.11900   0.80140   0.17890   Biso      1.000     C          -0.11871  
         C61       1.0000    0.71470   0.62070   0.25319   Biso      1.000     C          -0.194539           
         C62       1.0000    0.78870   0.77816   0.83230   Biso      1.000     C          0.609885  
         C63       1.0000    0.71280   0.62030   0.16370   Biso      1.000     C          -0.063075           
         C64       1.0000    0.88170   0.60420   0.15432   Biso      1.000     C          0.057632  
         C65       1.0000    0.80786   0.60790   0.67356   Biso      1.000     C          0.605396  
         C66       1.0000    0.35144   0.61190   0.84399   Biso      1.000     C          0.122536  
         C67       1.0000    0.80070   0.61280   0.29440   Biso      1.000     C          0.195143  
         C68       1.0000    0.72360   0.63010   0.44160   Biso      1.000     C          -0.144754           
         C69       1.0000    0.80202   0.43704   0.84571   Biso      1.000     C          0.597724  
         C70       1.0000    0.80280   0.61150   0.39180   Biso      1.000     C          0.054463  
         C71       1.0000    0.72570   0.63030   0.53140   Biso      1.000     C          -0.106859           
         C72       1.0000    0.79080   0.87710   0.82660   Biso      1.000     C          -0.051926           
         H1        1.0000    0.93010   0.88350   0.79540   Biso      1.000     H          0.120107  
         H2        1.0000    0.93360   0.03520   0.79070   Biso      1.000     H          0.129885  
         H3        1.0000    0.36770   0.54630   0.95990   Biso      1.000     H          0.128362  
         H4        1.0000    0.52930   0.54660   0.95960   Biso      1.000     H          0.089359  
         H5        1.0000    0.37470   0.67750   0.72530   Biso      1.000     H          0.133178  
         H6        1.0000    0.93810   0.16570   0.81330   Biso      1.000     H          0.106096  
         H7        1.0000    0.53730   0.67760   0.73170   Biso      1.000     H          0.10626   
         H8        1.0000    0.94040   0.31370   0.82720   Biso      1.000     H          0.10531   
         H9        1.0000    0.65810   0.62620   0.28700   Biso      1.000     H          0.123304  
         H10       1.0000    0.66160   0.32820   0.85120   Biso      1.000     H          0.108972  
         H11       1.0000    0.94360   0.57650   0.55030   Biso      1.000     H          0.112219  
         H12       1.0000    0.93900   0.57810   0.40040   Biso      1.000     H          0.122833  
         H13       1.0000    0.66640   0.64310   0.41430   Biso      1.000     H          0.106056  
         H14       1.0000    0.67020   0.64560   0.56390   Biso      1.000     H          0.10774   
         H15       1.0000    0.93860   0.59840   0.12090   Biso      1.000     H          0.101542  
         H16       1.0000    0.65450   0.62610   0.13690   Biso      1.000     H          0.11282   
         H17       1.0000    0.05710   0.60200   0.97060   Biso      1.000     H          0.105528  
         H18       1.0000    0.23380   0.62310   0.71030   Biso      1.000     H          0.132684  
         H19       1.0000    0.07080   0.62010   0.71190   Biso      1.000     H          0.109551  
         H20       1.0000    0.21960   0.60560   0.97530   Biso      1.000     H          0.132436  
         H21       1.0000    0.65410   0.90500   0.84940   Biso      1.000     H          0.106406  
         H22       1.0000    0.62530   0.32250   0.27470   Biso      1.000     H          0.133177  
         H23       1.0000    0.05640   0.42350   0.44970   Biso      1.000     H          0.11222   
         H24       1.0000    0.47070   0.45340   0.04040   Biso      1.000     H          0.08936   
         H25       1.0000    0.78040   0.39440   0.02470   Biso      1.000     H          0.132436  
         H26       1.0000    0.92920   0.37990   0.28810   Biso      1.000     H          0.109551  
         H27       1.0000    0.76620   0.37690   0.28970   Biso      1.000     H          0.132684  
         H28       1.0000    0.94290   0.39800   0.02940   Biso      1.000     H          0.105529  
         H29       1.0000    0.63230   0.45370   0.04010   Biso      1.000     H          0.128361  
         H30       1.0000    0.34550   0.37390   0.86310   Biso      1.000     H          0.112822  
         H31       1.0000    0.06140   0.40160   0.87910   Biso      1.000     H          0.101542  
         H32       1.0000    0.32980   0.35440   0.43610   Biso      1.000     H          0.107741  
         H33       1.0000    0.34190   0.37380   0.71300   Biso      1.000     H          0.123302  
         H34       1.0000    0.06100   0.42190   0.59960   Biso      1.000     H          0.122832  
         H35       1.0000    0.33840   0.67180   0.14880   Biso      1.000     H          0.10897   
         H36       1.0000    0.34590   0.09500   0.15060   Biso      1.000     H          0.106406  
         H37       1.0000    0.05960   0.68630   0.17280   Biso      1.000     H          0.105309  
         H38       1.0000    0.06190   0.83430   0.18670   Biso      1.000     H          0.106094  
         H39       1.0000    0.06990   0.11650   0.20460   Biso      1.000     H          0.120106  
         H40       1.0000    0.06640   0.96480   0.20930   Biso      1.000     H          0.129884  
         H41       1.0000    0.46270   0.32240   0.26830   Biso      1.000     H          0.10626   
         H42       1.0000    0.33360   0.35690   0.58570   Biso      1.000     H          0.106055  
         N1        1.0000    0.54933   0.61109   0.84627   Biso      1.000     N          -0.182308           
         N2        1.0000    0.88390   0.60520   0.24409   Biso      1.000     N          -0.304875           
         N3        1.0000    0.71410   0.02060   0.83670   Biso      1.000     N          -0.121013           
         N4        1.0000    0.95202   0.38968   0.15803   Biso      1.000     N          -0.195747           
         N5        1.0000    0.11610   0.39480   0.75591   Biso      1.000     N          -0.304875           
         N6        1.0000    0.45067   0.38891   0.15373   Biso      1.000     N          -0.182306           
         N7        1.0000    0.28590   0.97940   0.16330   Biso      1.000     N          -0.121012           
         N8        1.0000    0.04798   0.61032   0.84197   Biso      1.000     N          -0.195747           
         O1        1.0000    0.86700   0.73559   0.82582   Biso      1.000     O          -0.558374           
         O2        1.0000    0.27017   0.38379   0.28459   Biso      1.000     O          -0.564275           
         O3        1.0000    0.28497   0.39170   0.02073   Biso      1.000     O          -0.559    
         O4        1.0000    0.11209   0.40123   0.29279   Biso      1.000     O          -0.551932           
         O5        1.0000    0.11881   0.52938   0.15223   Biso      1.000     O          -0.544949           
         O6        1.0000    0.12686   0.39408   0.02911   Biso      1.000     O          -0.558855           
         O7        1.0000    0.27715   0.52093   0.15040   Biso      1.000     O          -0.578204           
         O8        1.0000    0.13300   0.26441   0.17418   Biso      1.000     O          -0.558374           
         O9        1.0000    0.29095   0.25483   0.15665   Biso      1.000     O          -0.559984           
         O10       1.0000    0.70905   0.74517   0.84335   Biso      1.000     O          -0.559984           
         O11       1.0000    0.88119   0.47062   0.84777   Biso      1.000     O          -0.544949           
         O12       1.0000    0.88791   0.59877   0.70721   Biso      1.000     O          -0.551933           
         O13       1.0000    0.72285   0.47907   0.84960   Biso      1.000     O          -0.578203           
         O14       1.0000    0.71503   0.60830   0.97927   Biso      1.000     O          -0.559    
         O15       1.0000    0.72983   0.61621   0.71541   Biso      1.000     O          -0.564275           
         O16       1.0000    0.87314   0.60592   0.97089   Biso      1.000     O          -0.558855           
         Rh1       1.0000    0.62210   0.12180   0.84360   Biso      1.000     Rh          -0.038538           
         Rh2       1.0000    0.37790   0.87820   0.15640   Biso      1.000     Rh          -0.038534           
         Zn1       1.0000    0.30603   0.38717   0.15279   Biso      1.000     Zn          0.845856  
         Zn2       1.0000    0.09600   0.39643   0.16095   Biso      1.000     Zn          0.847942  
         Zn3       1.0000    0.69397   0.61283   0.84721   Biso      1.000     Zn          0.845856  
         Zn4       1.0000    0.90400   0.60357   0.83905   Biso      1.000     Zn          0.847943 