
##########################################################################
#               Crystallographic Information Format file
#               Produced by PyCifRW module
#
#  This is a CIF file.  CIF has been adopted by the International
#  Union of Crystallography as the standard for data archiving and
#  transmission.
#
#  For information on this file format, follow the CIF links at
#  http://www.iucr.org
##########################################################################

data_image0

_cell_length_a                          10.6783
_cell_length_b                          10.6783
_cell_length_c                          18.743
_cell_angle_alpha                       74.1394
_cell_angle_beta                        74.1394
_cell_angle_gamma                       65.0198
_symmetry_space_group_name_H-M          'P 1'
_symmetry_int_tables_number             1
loop_
  _symmetry_equiv_pos_as_xyz
         'x, y, z' 
loop_
  _atom_site_label
  _atom_site_occupancy
  _atom_site_fract_x
  _atom_site_fract_y
  _atom_site_fract_z
  _atom_site_thermal_displace_type
  _atom_site_B_iso_or_equiv
  _atom_site_type_symbol
  _atom_site_charge
         C1        1.0000    0.51091   0.11395   0.51679   Biso      1.000     C          -0.022834           
         C2        1.0000    0.48159   0.12417   0.44690   Biso      1.000     C          -0.09814500000000001          
         C3        1.0000    0.52455   0.23427   0.53605   Biso      1.000     C          0.579659  
         C4        1.0000    0.67669   0.55923   0.70580   Biso      1.000     C          0.5946640000000001  
         C5        1.0000    0.81519   0.57375   0.67100   Biso      1.000     C          -0.040158           
         C6        1.0000    0.90912   0.55052   0.71686   Biso      1.000     C          -0.106216           
         C7        1.0000    0.04097   0.55539   0.68462   Biso      1.000     C          -0.09917999999999999          
         C8        1.0000    0.07961   0.58409   0.60620   Biso      1.000     C          -0.019430000000000003         
         C9        1.0000    0.98456   0.61074   0.56052   Biso      1.000     C          -0.10379400000000001          
         C10       1.0000    0.85306   0.60490   0.59267   Biso      1.000     C          -0.10315999999999999          
         C11       1.0000    0.52950   0.98970   0.56956   Biso      1.000     C          -0.102495           
         C12       1.0000    0.22537   0.57855   0.57025   Biso      1.000     C          0.588489  
         C13       1.0000    0.88605   0.48909   0.98321   Biso      1.000     C          -0.02286  
         C14       1.0000    0.87583   0.51841   0.05310   Biso      1.000     C          -0.098149           
         C15       1.0000    0.01030   0.47050   0.93044   Biso      1.000     C          -0.102503           
         C16       1.0000    0.44077   0.32331   0.79420   Biso      1.000     C          0.594663  
         C17       1.0000    0.42625   0.18481   0.82900   Biso      1.000     C          -0.040156           
         C18       1.0000    0.44948   0.09088   0.78314   Biso      1.000     C          -0.10620299999999999          
         C19       1.0000    0.44461   0.95903   0.81538   Biso      1.000     C          -0.099174           
         C20       1.0000    0.41591   0.92039   0.89380   Biso      1.000     C          -0.01944  
         C21       1.0000    0.38926   0.01544   0.93948   Biso      1.000     C          -0.103789           
         C22       1.0000    0.76573   0.47545   0.96395   Biso      1.000     C          0.579675  
         C23       1.0000    0.32331   0.44077   0.29420   Biso      1.000     C          0.5958289999999999  
         C24       1.0000    0.18481   0.42625   0.32900   Biso      1.000     C          -0.039106           
         C25       1.0000    0.09088   0.44948   0.28314   Biso      1.000     C          -0.10543699999999999          
         C26       1.0000    0.47050   0.01030   0.43044   Biso      1.000     C          -0.102546           
         C27       1.0000    0.51841   0.87583   0.55310   Biso      1.000     C          -0.098386           
         C28       1.0000    0.48909   0.88605   0.48321   Biso      1.000     C          -0.022947           
         C29       1.0000    0.47545   0.76573   0.46395   Biso      1.000     C          0.579809  
         C30       1.0000    0.57855   0.22537   0.07025   Biso      1.000     C          0.588067  
         C31       1.0000    0.60490   0.85306   0.09267   Biso      1.000     C          -0.101773           
         C32       1.0000    0.61074   0.98456   0.06052   Biso      1.000     C          -0.102745           
         C33       1.0000    0.58409   0.07961   0.10620   Biso      1.000     C          -0.021079           
         C34       1.0000    0.55539   0.04097   0.18462   Biso      1.000     C          -0.097457           
         C35       1.0000    0.55052   0.90912   0.21686   Biso      1.000     C          -0.105446           
         C36       1.0000    0.57375   0.81519   0.17100   Biso      1.000     C          -0.039102           
         C37       1.0000    0.55923   0.67669   0.20580   Biso      1.000     C          0.595769  
         C38       1.0000    0.98970   0.52950   0.06956   Biso      1.000     C          -0.102528           
         C39       1.0000    0.12417   0.48159   0.94690   Biso      1.000     C          -0.09838200000000001          
         C40       1.0000    0.11395   0.51091   0.01679   Biso      1.000     C          -0.022959999999999998         
         C41       1.0000    0.23427   0.52455   0.03605   Biso      1.000     C          0.57977   
         C42       1.0000    0.77463   0.42145   0.42975   Biso      1.000     C          0.588066  
         C43       1.0000    0.14694   0.39510   0.40733   Biso      1.000     C          -0.101776           
         C44       1.0000    0.01544   0.38926   0.43948   Biso      1.000     C          -0.10273399999999999          
         C45       1.0000    0.92039   0.41591   0.39380   Biso      1.000     C          -0.021067           
         C46       1.0000    0.95903   0.44461   0.31538   Biso      1.000     C          -0.097452           
         C47       1.0000    0.39510   0.14694   0.90733   Biso      1.000     C          -0.10315  
         C48       1.0000    0.42145   0.77463   0.92975   Biso      1.000     C          0.588541  
         Eu1       1.0000    0.56088   0.44294   0.89804   Biso      1.000     Eu          1.34764   
         Eu2       1.0000    0.43912   0.55706   0.10196   Biso      1.000     Eu          1.349466  
         Eu3       1.0000    0.55706   0.43912   0.60196   Biso      1.000     Eu          1.347641  
         Eu4       1.0000    0.44294   0.56088   0.39804   Biso      1.000     Eu          1.349401  
         H1        1.0000    0.45060   0.01700   0.38390   Biso      1.000     H          0.120834  
         H2        1.0000    0.88340   0.53180   0.76900   Biso      1.000     H          0.12321199999999999           
         H3        1.0000    0.10350   0.53950   0.71520   Biso      1.000     H          0.126573  
         H4        1.0000    0.00930   0.63250   0.50840   Biso      1.000     H          0.119872  
         H5        1.0000    0.79020   0.62180   0.56200   Biso      1.000     H          0.11293299999999999           
         H6        1.0000    0.79330   0.53050   0.08850   Biso      1.000     H          0.120565  
         H7        1.0000    0.46820   0.11660   0.73100   Biso      1.000     H          0.123216  
         H8        1.0000    0.46050   0.89650   0.78480   Biso      1.000     H          0.126582  
         H9        1.0000    0.36750   0.99070   0.99160   Biso      1.000     H          0.119875  
         H10       1.0000    0.37820   0.20980   0.93800   Biso      1.000     H          0.11294100000000001           
         H11       1.0000    0.01700   0.45060   0.88390   Biso      1.000     H          0.12093599999999999           
         H12       1.0000    0.54940   0.98300   0.61610   Biso      1.000     H          0.12094200000000001           
         H13       1.0000    0.53050   0.79330   0.58850   Biso      1.000     H          0.120782  
         H14       1.0000    0.46950   0.20670   0.41150   Biso      1.000     H          0.12056300000000002           
         H15       1.0000    0.63250   0.00930   0.00840   Biso      1.000     H          0.12014200000000001           
         H16       1.0000    0.53950   0.10350   0.21520   Biso      1.000     H          0.126613  
         H17       1.0000    0.53180   0.88340   0.26900   Biso      1.000     H          0.123358  
         H18       1.0000    0.98300   0.54940   0.11610   Biso      1.000     H          0.12083499999999998           
         H19       1.0000    0.62180   0.79020   0.06200   Biso      1.000     H          0.113024  
         H20       1.0000    0.20980   0.37820   0.43800   Biso      1.000     H          0.113027  
         H21       1.0000    0.99070   0.36750   0.49160   Biso      1.000     H          0.12013800000000001           
         H22       1.0000    0.89650   0.46050   0.28480   Biso      1.000     H          0.126615  
         H23       1.0000    0.11660   0.46820   0.23100   Biso      1.000     H          0.12336099999999998           
         H24       1.0000    0.20670   0.46950   0.91150   Biso      1.000     H          0.120775  
         O1        1.0000    0.35354   0.46610   0.22436   Biso      1.000     O          -0.500818           
         O2        1.0000    0.54043   0.31229   0.11339   Biso      1.000     O          -0.500963           
         O3        1.0000    0.60825   0.25219   0.99946   Biso      1.000     O          -0.533406           
         O4        1.0000    0.57542   0.59782   0.16145   Biso      1.000     O          -0.541377           
         O5        1.0000    0.53390   0.64646   0.27564   Biso      1.000     O          -0.500779           
         O6        1.0000    0.35528   0.48592   0.99512   Biso      1.000     O          -0.564974           
         O7        1.0000    0.21132   0.57476   0.09383   Biso      1.000     O          -0.502926           
         O8        1.0000    0.68771   0.45957   0.38661   Biso      1.000     O          -0.500949           
         O9        1.0000    0.74781   0.39175   0.50054   Biso      1.000     O          -0.533419           
         O10       1.0000    0.40218   0.42458   0.33855   Biso      1.000     O          -0.5413060000000001           
         O11       1.0000    0.48592   0.35528   0.49512   Biso      1.000     O          -0.564075           
         O12       1.0000    0.42524   0.78868   0.40617   Biso      1.000     O          -0.502893           
         O13       1.0000    0.45957   0.68771   0.88661   Biso      1.000     O          -0.49963599999999997          
         O14       1.0000    0.39175   0.74781   0.00054   Biso      1.000     O          -0.5362319999999999           
         O15       1.0000    0.42458   0.40218   0.83855   Biso      1.000     O          -0.539573           
         O16       1.0000    0.46610   0.35354   0.72436   Biso      1.000     O          -0.49801599999999996          
         O17       1.0000    0.64472   0.51408   0.00488   Biso      1.000     O          -0.564044           
         O18       1.0000    0.78868   0.42524   0.90617   Biso      1.000     O          -0.503645           
         O19       1.0000    0.31229   0.54043   0.61339   Biso      1.000     O          -0.499645           
         O20       1.0000    0.25219   0.60825   0.49946   Biso      1.000     O          -0.5361779999999999           
         O21       1.0000    0.59782   0.57542   0.66145   Biso      1.000     O          -0.5395979999999999           
         O22       1.0000    0.64646   0.53390   0.77564   Biso      1.000     O          -0.498039           
         O23       1.0000    0.57476   0.21132   0.59383   Biso      1.000     O          -0.503654           
         O24       1.0000    0.51408   0.64472   0.50488   Biso      1.000     O          -0.5649569999999999 