
##########################################################################
#               Crystallographic Information Format file
#               Produced by PyCifRW module
#
#  This is a CIF file.  CIF has been adopted by the International
#  Union of Crystallography as the standard for data archiving and
#  transmission.
#
#  For information on this file format, follow the CIF links at
#  http://www.iucr.org
##########################################################################

data_image0

_cell_length_a                          9.8274
_cell_length_b                          11.3108
_cell_length_c                          14.5072
_cell_angle_alpha                       91.5177
_cell_angle_beta                        90
_cell_angle_gamma                       90
_symmetry_space_group_name_H-M          'P 1'
_symmetry_int_tables_number             1
loop_
  _symmetry_equiv_pos_as_xyz
         'x, y, z' 
loop_
  _atom_site_label
  _atom_site_occupancy
  _atom_site_fract_x
  _atom_site_fract_y
  _atom_site_fract_z
  _atom_site_thermal_displace_type
  _atom_site_B_iso_or_equiv
  _atom_site_type_symbol
  _atom_site_charge
         C1        1.0000    0.28120   0.07040   0.94900   Biso      1.000     C          0.53359   
         C2        1.0000    0.12500   0.95690   0.18710   Biso      1.000     C          0.524189  
         C3        1.0000    0.10190   0.74170   0.97040   Biso      1.000     C          0.537213  
         C4        1.0000    0.71880   0.92960   0.05100   Biso      1.000     C          0.533589  
         C5        1.0000    0.32390   0.66790   0.17010   Biso      1.000     C          0.531083  
         C6        1.0000    0.51480   0.98040   0.28840   Biso      1.000     C          0.523207  
         C7        1.0000    0.21010   0.92680   0.44900   Biso      1.000     C          0.52842   
         C8        1.0000    0.62500   0.54310   0.31290   Biso      1.000     C          0.524189  
         C9        1.0000    0.60190   0.75830   0.52960   Biso      1.000     C          0.537213  
         C10       1.0000    0.21880   0.57040   0.44900   Biso      1.000     C          0.53359   
         C11       1.0000    0.01480   0.51960   0.21160   Biso      1.000     C          0.523207  
         C12       1.0000    0.17610   0.16790   0.67010   Biso      1.000     C          0.531083  
         C13       1.0000    0.28990   0.42680   0.94900   Biso      1.000     C          0.52842   
         C14       1.0000    0.87500   0.04310   0.81290   Biso      1.000     C          0.524189  
         C15       1.0000    0.89810   0.25830   0.02960   Biso      1.000     C          0.537213  
         C16       1.0000    0.67610   0.33210   0.82990   Biso      1.000     C          0.531083  
         C17       1.0000    0.48520   0.01960   0.71160   Biso      1.000     C          0.523207  
         C18       1.0000    0.78990   0.07320   0.55100   Biso      1.000     C          0.52842   
         C19       1.0000    0.37500   0.45690   0.68710   Biso      1.000     C          0.524189  
         C20       1.0000    0.39810   0.24170   0.47040   Biso      1.000     C          0.537213  
         C21       1.0000    0.78120   0.42960   0.55100   Biso      1.000     C          0.533589  
         C22       1.0000    0.98520   0.48040   0.78840   Biso      1.000     C          0.523207  
         C23       1.0000    0.82390   0.83210   0.32990   Biso      1.000     C          0.531083  
         C24       1.0000    0.71010   0.57320   0.05100   Biso      1.000     C          0.52842   
         H1        1.0000    0.24820   0.13720   0.63310   Biso      1.000     H          0.034945  
         H2        1.0000    0.20110   0.50940   0.49120   Biso      1.000     H          0.03971   
         H3        1.0000    0.75180   0.86280   0.36690   Biso      1.000     H          0.034945  
         H4        1.0000    0.03590   0.47810   0.26580   Biso      1.000     H          0.039194  
         H5        1.0000    0.61580   0.55720   0.04380   Biso      1.000     H          0.033737  
         H6        1.0000    0.18460   0.98610   0.23400   Biso      1.000     H          0.034127  
         H7        1.0000    0.15470   0.69610   0.92760   Biso      1.000     H          0.034352  
         H8        1.0000    0.25180   0.63720   0.13310   Biso      1.000     H          0.034945  
         H9        1.0000    0.53590   0.02190   0.23420   Biso      1.000     H          0.039194  
         H10       1.0000    0.11580   0.94280   0.45620   Biso      1.000     H          0.033737  
         H11       1.0000    0.68460   0.51390   0.26600   Biso      1.000     H          0.034127  
         H12       1.0000    0.65470   0.80390   0.57240   Biso      1.000     H          0.034352  
         H13       1.0000    0.70110   0.99060   0.00880   Biso      1.000     H          0.03971   
         H14       1.0000    0.34530   0.19610   0.42760   Biso      1.000     H          0.034352  
         H15       1.0000    0.31540   0.48610   0.73400   Biso      1.000     H          0.034126  
         H16       1.0000    0.88420   0.05720   0.54380   Biso      1.000     H          0.033737  
         H17       1.0000    0.46410   0.97810   0.76580   Biso      1.000     H          0.039194  
         H18       1.0000    0.74820   0.36280   0.86690   Biso      1.000     H          0.034945  
         H19       1.0000    0.29890   0.00940   0.99120   Biso      1.000     H          0.03971   
         H20       1.0000    0.84530   0.30390   0.07240   Biso      1.000     H          0.034352  
         H21       1.0000    0.81540   0.01390   0.76600   Biso      1.000     H          0.034127  
         H22       1.0000    0.38420   0.44280   0.95620   Biso      1.000     H          0.033737  
         H23       1.0000    0.79890   0.49060   0.50880   Biso      1.000     H          0.03971   
         H24       1.0000    0.96410   0.52190   0.73420   Biso      1.000     H          0.039194  
         O1        1.0000    0.21090   0.48560   0.99840   Biso      1.000     O          -0.49712700000000004          
         O2        1.0000    0.25770   0.34740   0.88980   Biso      1.000     O          -0.5392680000000001           
         O3        1.0000    0.99920   0.54030   0.86080   Biso      1.000     O          -0.502644           
         O4        1.0000    0.99660   0.36910   0.78040   Biso      1.000     O          -0.542104           
         O5        1.0000    0.06380   0.18210   0.63110   Biso      1.000     O          -0.500153           
         O6        1.0000    0.52250   0.81550   0.47660   Biso      1.000     O          -0.541227           
         O7        1.0000    0.11940   0.61140   0.40820   Biso      1.000     O          -0.494001           
         O8        1.0000    0.34320   0.60220   0.44020   Biso      1.000     O          -0.5376890000000001           
         O9        1.0000    0.61660   0.65010   0.53050   Biso      1.000     O          -0.502768           
         O10       1.0000    0.91940   0.14850   0.80420   Biso      1.000     O          -0.545702           
         O11       1.0000    0.59860   0.47490   0.37590   Biso      1.000     O          -0.490597           
         O12       1.0000    0.20300   0.19060   0.75440   Biso      1.000     O          -0.541986           
         O13       1.0000    0.90140   0.97490   0.87590   Biso      1.000     O          -0.490597           
         O14       1.0000    0.56380   0.31790   0.86890   Biso      1.000     O          -0.500153           
         O15       1.0000    0.88340   0.15010   0.03050   Biso      1.000     O          -0.502768           
         O16       1.0000    0.38340   0.34990   0.46950   Biso      1.000     O          -0.502768           
         O17       1.0000    0.47750   0.18450   0.52340   Biso      1.000     O          -0.541227           
         O18       1.0000    0.40140   0.52510   0.62410   Biso      1.000     O          -0.490597           
         O19       1.0000    0.41940   0.35150   0.69580   Biso      1.000     O          -0.5457029999999999           
         O20       1.0000    0.71090   0.01440   0.50160   Biso      1.000     O          -0.497126           
         O21       1.0000    0.75770   0.15260   0.61020   Biso      1.000     O          -0.5392680000000001           
         O22       1.0000    0.15680   0.10220   0.94020   Biso      1.000     O          -0.5376890000000001           
         O23       1.0000    0.49920   0.95970   0.63920   Biso      1.000     O          -0.502644           
         O24       1.0000    0.49660   0.13090   0.71960   Biso      1.000     O          -0.542104           
         O25       1.0000    0.70300   0.30940   0.74560   Biso      1.000     O          -0.541986           
         O26       1.0000    0.38060   0.11140   0.90820   Biso      1.000     O          -0.494001           
         O27       1.0000    0.58060   0.64850   0.30420   Biso      1.000     O          -0.5457029999999999           
         O28       1.0000    0.97750   0.31550   0.97660   Biso      1.000     O          -0.541227           
         O29       1.0000    0.28910   0.98560   0.49840   Biso      1.000     O          -0.497126           
         O30       1.0000    0.88060   0.38860   0.59180   Biso      1.000     O          -0.494001           
         O31       1.0000    0.50080   0.04030   0.36080   Biso      1.000     O          -0.5026430000000001           
         O32       1.0000    0.65680   0.39780   0.55980   Biso      1.000     O          -0.5376890000000001           
         O33       1.0000    0.79700   0.80940   0.24560   Biso      1.000     O          -0.541986           
         O34       1.0000    0.24230   0.84740   0.38980   Biso      1.000     O          -0.5392680000000001           
         O35       1.0000    0.00340   0.63090   0.21960   Biso      1.000     O          -0.542104           
         O36       1.0000    0.00080   0.45970   0.13920   Biso      1.000     O          -0.502644           
         O37       1.0000    0.74230   0.65260   0.11020   Biso      1.000     O          -0.5392680000000001           
         O38       1.0000    0.78910   0.51440   0.00160   Biso      1.000     O          -0.49712700000000004          
         O39       1.0000    0.08060   0.85150   0.19580   Biso      1.000     O          -0.545702           
         O40       1.0000    0.93620   0.81790   0.36890   Biso      1.000     O          -0.500153           
         O41       1.0000    0.02250   0.68450   0.02340   Biso      1.000     O          -0.541227           
         O42       1.0000    0.11660   0.84990   0.96950   Biso      1.000     O          -0.502768           
         O43       1.0000    0.84320   0.89780   0.05980   Biso      1.000     O          -0.5376890000000001           
         O44       1.0000    0.61940   0.88860   0.09180   Biso      1.000     O          -0.494001           
         O45       1.0000    0.29700   0.69060   0.25440   Biso      1.000     O          -0.541986           
         O46       1.0000    0.43620   0.68210   0.13110   Biso      1.000     O          -0.500153           
         O47       1.0000    0.50340   0.86910   0.28040   Biso      1.000     O          -0.542104           
         O48       1.0000    0.09860   0.02510   0.12410   Biso      1.000     O          -0.490597           
         Zn1       1.0000    0.10555   0.74140   0.31324   Biso      1.000     Zn          0.933026  
         Zn2       1.0000    0.41929   0.74213   0.36750   Biso      1.000     Zn          0.9502229999999999  
         Zn3       1.0000    0.60555   0.75860   0.18676   Biso      1.000     Zn          0.933026  
         Zn4       1.0000    0.08071   0.24213   0.86750   Biso      1.000     Zn          0.9502229999999999  
         Zn5       1.0000    0.89445   0.25860   0.68676   Biso      1.000     Zn          0.933026  
         Zn6       1.0000    0.50000   0.00000   0.50000   Biso      1.000     Zn          0.9522229999999999  
         Zn7       1.0000    0.39445   0.24140   0.81324   Biso      1.000     Zn          0.933027  
         Zn8       1.0000    0.00000   0.50000   0.00000   Biso      1.000     Zn          0.9522229999999999  
         Zn9       1.0000    0.00000   0.00000   0.00000   Biso      1.000     Zn          0.9642799999999999  
         Zn10      1.0000    0.50000   0.50000   0.50000   Biso      1.000     Zn          0.9642799999999999  
         Zn11      1.0000    0.58071   0.25787   0.63250   Biso      1.000     Zn          0.9502229999999999  
         Zn12      1.0000    0.91929   0.75787   0.13250   Biso      1.000     Zn          0.9502229999999999 