
##########################################################################
#               Crystallographic Information Format file
#               Produced by PyCifRW module
#
#  This is a CIF file.  CIF has been adopted by the International
#  Union of Crystallography as the standard for data archiving and
#  transmission.
#
#  For information on this file format, follow the CIF links at
#  http://www.iucr.org
##########################################################################

data_image0

_cell_length_a                          9.7505
_cell_length_b                          11.2177
_cell_length_c                          14.3736
_cell_angle_alpha                       91.2891
_cell_angle_beta                        90
_cell_angle_gamma                       90
_symmetry_space_group_name_H-M          'P 1'
_symmetry_int_tables_number             1
loop_
  _symmetry_equiv_pos_as_xyz
         'x, y, z' 
loop_
  _atom_site_label
  _atom_site_occupancy
  _atom_site_fract_x
  _atom_site_fract_y
  _atom_site_fract_z
  _atom_site_thermal_displace_type
  _atom_site_B_iso_or_equiv
  _atom_site_type_symbol
  _atom_site_charge
         C1        1.0000    0.28310   0.07320   0.95510   Biso      1.000     C          0.534779  
         C2        1.0000    0.11960   0.96000   0.19130   Biso      1.000     C          0.52652   
         C3        1.0000    0.11260   0.74260   0.97330   Biso      1.000     C          0.537101  
         C4        1.0000    0.71690   0.92680   0.04490   Biso      1.000     C          0.534779  
         C5        1.0000    0.32100   0.66870   0.16870   Biso      1.000     C          0.535675  
         C6        1.0000    0.50550   0.98390   0.28670   Biso      1.000     C          0.528199  
         C7        1.0000    0.20790   0.92320   0.45530   Biso      1.000     C          0.5216189999999999  
         C8        1.0000    0.61960   0.54000   0.30870   Biso      1.000     C          0.52652   
         C9        1.0000    0.61260   0.75740   0.52670   Biso      1.000     C          0.537101  
         C10       1.0000    0.21690   0.57320   0.45510   Biso      1.000     C          0.534779  
         C11       1.0000    0.00550   0.51610   0.21330   Biso      1.000     C          0.5282    
         C12       1.0000    0.17900   0.16870   0.66870   Biso      1.000     C          0.535675  
         C13       1.0000    0.29210   0.42320   0.95530   Biso      1.000     C          0.5216189999999999  
         C14       1.0000    0.88040   0.04000   0.80870   Biso      1.000     C          0.52652   
         C15       1.0000    0.88740   0.25740   0.02670   Biso      1.000     C          0.537101  
         C16       1.0000    0.67900   0.33130   0.83130   Biso      1.000     C          0.535675  
         C17       1.0000    0.49450   0.01610   0.71330   Biso      1.000     C          0.528199  
         C18       1.0000    0.79210   0.07680   0.54470   Biso      1.000     C          0.5216189999999999  
         C19       1.0000    0.38040   0.46000   0.69130   Biso      1.000     C          0.52652   
         C20       1.0000    0.38740   0.24260   0.47330   Biso      1.000     C          0.537101  
         C21       1.0000    0.78310   0.42680   0.54490   Biso      1.000     C          0.534779  
         C22       1.0000    0.99450   0.48390   0.78670   Biso      1.000     C          0.5282    
         C23       1.0000    0.82100   0.83130   0.33130   Biso      1.000     C          0.535675  
         C24       1.0000    0.70790   0.57680   0.04470   Biso      1.000     C          0.5216189999999999  
         H1        1.0000    0.25210   0.13840   0.63140   Biso      1.000     H          0.028938  
         H2        1.0000    0.20020   0.51420   0.50010   Biso      1.000     H          0.037079  
         H3        1.0000    0.74790   0.86160   0.36860   Biso      1.000     H          0.028938  
         H4        1.0000    0.02250   0.47390   0.26870   Biso      1.000     H          0.035718  
         H5        1.0000    0.61310   0.56140   0.03540   Biso      1.000     H          0.038058999999999996          
         H6        1.0000    0.17440   0.99060   0.24100   Biso      1.000     H          0.032248  
         H7        1.0000    0.17210   0.69670   0.93440   Biso      1.000     H          0.034268  
         H8        1.0000    0.24790   0.63840   0.13140   Biso      1.000     H          0.028938  
         H9        1.0000    0.52250   0.02610   0.23130   Biso      1.000     H          0.035718  
         H10       1.0000    0.11310   0.93860   0.46460   Biso      1.000     H          0.038058999999999996          
         H11       1.0000    0.67440   0.50940   0.25900   Biso      1.000     H          0.032248  
         H12       1.0000    0.67210   0.80330   0.56560   Biso      1.000     H          0.034268  
         H13       1.0000    0.70020   0.98580   0.99990   Biso      1.000     H          0.037079  
         H14       1.0000    0.32790   0.19670   0.43440   Biso      1.000     H          0.034268  
         H15       1.0000    0.32560   0.49060   0.74100   Biso      1.000     H          0.032248  
         H16       1.0000    0.88690   0.06140   0.53540   Biso      1.000     H          0.038058999999999996          
         H17       1.0000    0.47750   0.97390   0.76870   Biso      1.000     H          0.035718  
         H18       1.0000    0.75210   0.36160   0.86860   Biso      1.000     H          0.028938  
         H19       1.0000    0.29980   0.01420   0.00010   Biso      1.000     H          0.037079  
         H20       1.0000    0.82790   0.30330   0.06560   Biso      1.000     H          0.034268  
         H21       1.0000    0.82560   0.00940   0.75900   Biso      1.000     H          0.032248  
         H22       1.0000    0.38690   0.43860   0.96460   Biso      1.000     H          0.038058999999999996          
         H23       1.0000    0.79980   0.48580   0.49990   Biso      1.000     H          0.037079  
         H24       1.0000    0.97750   0.52610   0.73130   Biso      1.000     H          0.035718  
         O1        1.0000    0.21010   0.47801   0.00611   Biso      1.000     O          -0.48549899999999996          
         O2        1.0000    0.25940   0.34720   0.89100   Biso      1.000     O          -0.544316           
         O3        1.0000    0.00940   0.54421   0.85831   Biso      1.000     O          -0.49788599999999994          
         O4        1.0000    0.99950   0.37144   0.77904   Biso      1.000     O          -0.546275           
         O5        1.0000    0.06880   0.18570   0.62900   Biso      1.000     O          -0.492623           
         O6        1.0000    0.52870   0.81505   0.47545   Biso      1.000     O          -0.547254           
         O7        1.0000    0.11500   0.61242   0.41382   Biso      1.000     O          -0.496043           
         O8        1.0000    0.34130   0.60398   0.44328   Biso      1.000     O          -0.534726           
         O9        1.0000    0.62320   0.64854   0.53014   Biso      1.000     O          -0.493076           
         O10       1.0000    0.92050   0.14794   0.80314   Biso      1.000     O          -0.548207           
         O11       1.0000    0.59390   0.47161   0.37241   Biso      1.000     O          -0.48865  
         O12       1.0000    0.20500   0.18769   0.75509   Biso      1.000     O          -0.552242           
         O13       1.0000    0.90610   0.97161   0.87241   Biso      1.000     O          -0.48865  
         O14       1.0000    0.56880   0.31430   0.87100   Biso      1.000     O          -0.492623           
         O15       1.0000    0.87680   0.14854   0.03014   Biso      1.000     O          -0.493076           
         O16       1.0000    0.37680   0.35146   0.46986   Biso      1.000     O          -0.493076           
         O17       1.0000    0.47130   0.18495   0.52455   Biso      1.000     O          -0.547254           
         O18       1.0000    0.40610   0.52839   0.62759   Biso      1.000     O          -0.48865  
         O19       1.0000    0.42050   0.35206   0.69686   Biso      1.000     O          -0.548208           
         O20       1.0000    0.71010   0.02199   0.49389   Biso      1.000     O          -0.48549899999999996          
         O21       1.0000    0.75940   0.15280   0.60900   Biso      1.000     O          -0.544316           
         O22       1.0000    0.15870   0.10398   0.94328   Biso      1.000     O          -0.534725           
         O23       1.0000    0.50940   0.95579   0.64169   Biso      1.000     O          -0.49788599999999994          
         O24       1.0000    0.49950   0.12856   0.72096   Biso      1.000     O          -0.546276           
         O25       1.0000    0.70500   0.31231   0.74491   Biso      1.000     O          -0.552242           
         O26       1.0000    0.38500   0.11242   0.91382   Biso      1.000     O          -0.496042           
         O27       1.0000    0.57950   0.64794   0.30314   Biso      1.000     O          -0.548207           
         O28       1.0000    0.97130   0.31505   0.97545   Biso      1.000     O          -0.547254           
         O29       1.0000    0.28990   0.97801   0.50611   Biso      1.000     O          -0.48549899999999996          
         O30       1.0000    0.88500   0.38758   0.58618   Biso      1.000     O          -0.496043           
         O31       1.0000    0.49060   0.04421   0.35831   Biso      1.000     O          -0.49788599999999994          
         O32       1.0000    0.65870   0.39602   0.55672   Biso      1.000     O          -0.534726           
         O33       1.0000    0.79500   0.81231   0.24491   Biso      1.000     O          -0.552242           
         O34       1.0000    0.24060   0.84720   0.39100   Biso      1.000     O          -0.544316           
         O35       1.0000    0.00050   0.62856   0.22096   Biso      1.000     O          -0.546275           
         O36       1.0000    0.99060   0.45579   0.14169   Biso      1.000     O          -0.49788599999999994          
         O37       1.0000    0.74060   0.65280   0.10900   Biso      1.000     O          -0.544316           
         O38       1.0000    0.78990   0.52199   0.99389   Biso      1.000     O          -0.48549899999999996          
         O39       1.0000    0.07950   0.85206   0.19686   Biso      1.000     O          -0.548207           
         O40       1.0000    0.93120   0.81430   0.37100   Biso      1.000     O          -0.492623           
         O41       1.0000    0.02870   0.68495   0.02455   Biso      1.000     O          -0.547254           
         O42       1.0000    0.12320   0.85146   0.96986   Biso      1.000     O          -0.493076           
         O43       1.0000    0.84130   0.89602   0.05672   Biso      1.000     O          -0.534725           
         O44       1.0000    0.61500   0.88758   0.08618   Biso      1.000     O          -0.496043           
         O45       1.0000    0.29500   0.68769   0.25509   Biso      1.000     O          -0.552242           
         O46       1.0000    0.43120   0.68570   0.12900   Biso      1.000     O          -0.492623           
         O47       1.0000    0.50050   0.87144   0.27904   Biso      1.000     O          -0.546276           
         O48       1.0000    0.09390   0.02839   0.12759   Biso      1.000     O          -0.48865  
         Zn1       1.0000    0.10322   0.74020   0.31480   Biso      1.000     Zn          0.932947  
         Zn2       1.0000    0.41895   0.74328   0.36814   Biso      1.000     Zn          0.950206  
         Zn3       1.0000    0.60322   0.75980   0.18520   Biso      1.000     Zn          0.932947  
         Zn4       1.0000    0.08105   0.24328   0.86814   Biso      1.000     Zn          0.950206  
         Zn5       1.0000    0.89678   0.25980   0.68520   Biso      1.000     Zn          0.932947  
         Zn6       1.0000    0.50000   0.00000   0.50000   Biso      1.000     Zn          0.9485950000000001  
         Zn7       1.0000    0.39678   0.24020   0.81480   Biso      1.000     Zn          0.932947  
         Zn8       1.0000    0.00000   0.50000   0.00000   Biso      1.000     Zn          0.9485950000000001  
         Zn9       1.0000    0.00000   0.00000   0.00000   Biso      1.000     Zn          0.958285  
         Zn10      1.0000    0.50000   0.50000   0.50000   Biso      1.000     Zn          0.9582860000000001  
         Zn11      1.0000    0.58105   0.25672   0.63186   Biso      1.000     Zn          0.950206  
         Zn12      1.0000    0.91895   0.75672   0.13186   Biso      1.000     Zn          0.950206 