
##########################################################################
#               Crystallographic Information Format file
#               Produced by PyCifRW module
#
#  This is a CIF file.  CIF has been adopted by the International
#  Union of Crystallography as the standard for data archiving and
#  transmission.
#
#  For information on this file format, follow the CIF links at
#  http://www.iucr.org
##########################################################################

data_image0

_cell_length_a                          9.8486
_cell_length_b                          11.2956
_cell_length_c                          14.7493
_cell_angle_alpha                       91.3094
_cell_angle_beta                        90
_cell_angle_gamma                       90
_symmetry_space_group_name_H-M          'P 1'
_symmetry_int_tables_number             1
loop_
  _symmetry_equiv_pos_as_xyz
         'x, y, z' 
loop_
  _atom_site_label
  _atom_site_occupancy
  _atom_site_fract_x
  _atom_site_fract_y
  _atom_site_fract_z
  _atom_site_thermal_displace_type
  _atom_site_B_iso_or_equiv
  _atom_site_type_symbol
  _atom_site_charge
         C1        1.0000    0.27550   0.06195   0.93745   Biso      1.000     C          0.530846  
         C2        1.0000    0.13640   0.95338   0.18148   Biso      1.000     C          0.525329  
         C3        1.0000    0.09930   0.74174   0.96734   Biso      1.000     C          0.537138  
         C4        1.0000    0.72450   0.93805   0.06255   Biso      1.000     C          0.530847  
         C5        1.0000    0.33040   0.67963   0.16823   Biso      1.000     C          0.528122  
         C6        1.0000    0.52850   0.98165   0.29365   Biso      1.000     C          0.529664  
         C7        1.0000    0.21120   0.92824   0.44394   Biso      1.000     C          0.523415  
         C8        1.0000    0.63640   0.54662   0.31852   Biso      1.000     C          0.525329  
         C9        1.0000    0.59930   0.75826   0.53266   Biso      1.000     C          0.537138  
         C10       1.0000    0.22450   0.56195   0.43745   Biso      1.000     C          0.530846  
         C11       1.0000    0.02850   0.51835   0.20635   Biso      1.000     C          0.529663  
         C12       1.0000    0.16960   0.17963   0.66823   Biso      1.000     C          0.528122  
         C13       1.0000    0.28880   0.42824   0.94394   Biso      1.000     C          0.523414  
         C14       1.0000    0.86360   0.04662   0.81852   Biso      1.000     C          0.525329  
         C15       1.0000    0.90070   0.25826   0.03266   Biso      1.000     C          0.537138  
         C16       1.0000    0.66960   0.32037   0.83177   Biso      1.000     C          0.528122  
         C17       1.0000    0.47150   0.01835   0.70635   Biso      1.000     C          0.529663  
         C18       1.0000    0.78880   0.07176   0.55606   Biso      1.000     C          0.523415  
         C19       1.0000    0.36360   0.45338   0.68148   Biso      1.000     C          0.525329  
         C20       1.0000    0.40070   0.24174   0.46734   Biso      1.000     C          0.537138  
         C21       1.0000    0.77550   0.43805   0.56255   Biso      1.000     C          0.530846  
         C22       1.0000    0.97150   0.48165   0.79365   Biso      1.000     C          0.529663  
         C23       1.0000    0.83040   0.82037   0.33177   Biso      1.000     C          0.528122  
         C24       1.0000    0.71120   0.57176   0.05606   Biso      1.000     C          0.523415  
         H1        1.0000    0.24240   0.15460   0.63020   Biso      1.000     H          0.034917  
         H2        1.0000    0.20740   0.49630   0.47490   Biso      1.000     H          0.038706  
         H3        1.0000    0.75760   0.84540   0.36980   Biso      1.000     H          0.034917  
         H4        1.0000    0.05570   0.47750   0.25890   Biso      1.000     H          0.035244  
         H5        1.0000    0.61730   0.55340   0.05160   Biso      1.000     H          0.037943  
         H6        1.0000    0.19890   0.98130   0.22610   Biso      1.000     H          0.033392  
         H7        1.0000    0.15420   0.69530   0.92730   Biso      1.000     H          0.033343  
         H8        1.0000    0.25760   0.65460   0.13020   Biso      1.000     H          0.034917  
         H9        1.0000    0.55570   0.02250   0.24110   Biso      1.000     H          0.035244  
         H10       1.0000    0.11730   0.94660   0.44840   Biso      1.000     H          0.037943  
         H11       1.0000    0.69890   0.51870   0.27390   Biso      1.000     H          0.033392  
         H12       1.0000    0.65420   0.80470   0.57270   Biso      1.000     H          0.033343  
         H13       1.0000    0.70740   0.00370   0.02510   Biso      1.000     H          0.038705  
         H14       1.0000    0.34580   0.19530   0.42730   Biso      1.000     H          0.033342  
         H15       1.0000    0.30110   0.48130   0.72610   Biso      1.000     H          0.033392  
         H16       1.0000    0.88270   0.05340   0.55160   Biso      1.000     H          0.037943  
         H17       1.0000    0.44430   0.97750   0.75890   Biso      1.000     H          0.035244  
         H18       1.0000    0.74240   0.34540   0.86980   Biso      1.000     H          0.034917  
         H19       1.0000    0.29260   0.99630   0.97490   Biso      1.000     H          0.038706  
         H20       1.0000    0.84580   0.30470   0.07270   Biso      1.000     H          0.033342  
         H21       1.0000    0.80110   0.01870   0.77390   Biso      1.000     H          0.033392  
         H22       1.0000    0.38270   0.44660   0.94840   Biso      1.000     H          0.037943  
         H23       1.0000    0.79260   0.50370   0.52510   Biso      1.000     H          0.038706  
         H24       1.0000    0.94430   0.52250   0.74110   Biso      1.000     H          0.035244  
         O1        1.0000    0.21023   0.48696   0.99276   Biso      1.000     O          -0.49147  
         O2        1.0000    0.25466   0.34479   0.88794   Biso      1.000     O          -0.54204  
         O3        1.0000    0.98757   0.54221   0.86368   Biso      1.000     O          -0.503132           
         O4        1.0000    0.98752   0.37094   0.78469   Biso      1.000     O          -0.544763           
         O5        1.0000    0.05712   0.19372   0.63128   Biso      1.000     O          -0.493662           
         O6        1.0000    0.52452   0.81481   0.47673   Biso      1.000     O          -0.547867           
         O7        1.0000    0.12565   0.60333   0.39677   Biso      1.000     O          -0.492324           
         O8        1.0000    0.34735   0.59877   0.43404   Biso      1.000     O          -0.536973           
         O9        1.0000    0.60695   0.65051   0.53956   Biso      1.000     O          -0.493533           
         O10       1.0000    0.91718   0.14758   0.80544   Biso      1.000     O          -0.548808           
         O11       1.0000    0.61556   0.48167   0.38300   Biso      1.000     O          -0.487718           
         O12       1.0000    0.19613   0.19563   0.75225   Biso      1.000     O          -0.543633           
         O13       1.0000    0.88444   0.98167   0.88300   Biso      1.000     O          -0.487718           
         O14       1.0000    0.55712   0.30628   0.86872   Biso      1.000     O          -0.493661           
         O15       1.0000    0.89305   0.15051   0.03956   Biso      1.000     O          -0.493533           
         O16       1.0000    0.39305   0.34949   0.46044   Biso      1.000     O          -0.493533           
         O17       1.0000    0.47548   0.18519   0.52327   Biso      1.000     O          -0.547866           
         O18       1.0000    0.38444   0.51833   0.61700   Biso      1.000     O          -0.487718           
         O19       1.0000    0.41718   0.35242   0.69456   Biso      1.000     O          -0.548807           
         O20       1.0000    0.71023   0.01304   0.50724   Biso      1.000     O          -0.49147  
         O21       1.0000    0.75466   0.15521   0.61206   Biso      1.000     O          -0.54204  
         O22       1.0000    0.15265   0.09877   0.93404   Biso      1.000     O          -0.536973           
         O23       1.0000    0.48757   0.95779   0.63632   Biso      1.000     O          -0.503133           
         O24       1.0000    0.48752   0.12906   0.71531   Biso      1.000     O          -0.544763           
         O25       1.0000    0.69613   0.30437   0.74775   Biso      1.000     O          -0.543633           
         O26       1.0000    0.37435   0.10333   0.89677   Biso      1.000     O          -0.492324           
         O27       1.0000    0.58282   0.64758   0.30544   Biso      1.000     O          -0.548808           
         O28       1.0000    0.97548   0.31481   0.97673   Biso      1.000     O          -0.547866           
         O29       1.0000    0.28977   0.98696   0.49276   Biso      1.000     O          -0.49147  
         O30       1.0000    0.87435   0.39667   0.60323   Biso      1.000     O          -0.492324           
         O31       1.0000    0.51243   0.04221   0.36368   Biso      1.000     O          -0.503133           
         O32       1.0000    0.65265   0.40123   0.56596   Biso      1.000     O          -0.536973           
         O33       1.0000    0.80387   0.80437   0.24775   Biso      1.000     O          -0.543633           
         O34       1.0000    0.24534   0.84479   0.38794   Biso      1.000     O          -0.54204  
         O35       1.0000    0.01248   0.62906   0.21531   Biso      1.000     O          -0.544763           
         O36       1.0000    0.01243   0.45779   0.13632   Biso      1.000     O          -0.503132           
         O37       1.0000    0.74534   0.65521   0.11206   Biso      1.000     O          -0.54204  
         O38       1.0000    0.78977   0.51304   0.00724   Biso      1.000     O          -0.49147  
         O39       1.0000    0.08282   0.85242   0.19456   Biso      1.000     O          -0.548807           
         O40       1.0000    0.94288   0.80628   0.36872   Biso      1.000     O          -0.493661           
         O41       1.0000    0.02452   0.68519   0.02327   Biso      1.000     O          -0.547866           
         O42       1.0000    0.10695   0.84949   0.96044   Biso      1.000     O          -0.493533           
         O43       1.0000    0.84735   0.90123   0.06596   Biso      1.000     O          -0.536973           
         O44       1.0000    0.62565   0.89667   0.10323   Biso      1.000     O          -0.492324           
         O45       1.0000    0.30387   0.69563   0.25225   Biso      1.000     O          -0.543633           
         O46       1.0000    0.44288   0.69372   0.13128   Biso      1.000     O          -0.493661           
         O47       1.0000    0.51248   0.87094   0.28469   Biso      1.000     O          -0.544763           
         O48       1.0000    0.11556   0.01833   0.11700   Biso      1.000     O          -0.487718           
         Zn1       1.0000    0.11240   0.74124   0.30876   Biso      1.000     Zn          0.929097  
         Zn2       1.0000    0.42332   0.74314   0.36765   Biso      1.000     Zn          0.952412  
         Zn3       1.0000    0.61240   0.75876   0.19124   Biso      1.000     Zn          0.929097  
         Zn4       1.0000    0.07668   0.24314   0.86765   Biso      1.000     Zn          0.952412  
         Zn5       1.0000    0.88760   0.25876   0.69124   Biso      1.000     Zn          0.929097  
         Zn6       1.0000    0.50000   0.00000   0.50000   Biso      1.000     Zn          0.95299   
         Zn7       1.0000    0.38760   0.24124   0.80876   Biso      1.000     Zn          0.929096  
         Zn8       1.0000    0.00000   0.50000   0.00000   Biso      1.000     Zn          0.952989  
         Zn9       1.0000    0.00000   0.00000   0.00000   Biso      1.000     Zn          0.959723  
         Zn10      1.0000    0.50000   0.50000   0.50000   Biso      1.000     Zn          0.959723  
         Zn11      1.0000    0.57668   0.25686   0.63235   Biso      1.000     Zn          0.952411  
         Zn12      1.0000    0.92332   0.75686   0.13235   Biso      1.000     Zn          0.952412 