
##########################################################################
#               Crystallographic Information Format file
#               Produced by PyCifRW module
#
#  This is a CIF file.  CIF has been adopted by the International
#  Union of Crystallography as the standard for data archiving and
#  transmission.
#
#  For information on this file format, follow the CIF links at
#  http://www.iucr.org
##########################################################################

data_image0

_cell_length_a                          14.9179
_cell_length_b                          16.766
_cell_length_c                          17.8057
_cell_angle_alpha                       61.9134
_cell_angle_beta                        65.2343
_cell_angle_gamma                       90
_symmetry_space_group_name_H-M          'P 1'
_symmetry_int_tables_number             1
loop_
  _symmetry_equiv_pos_as_xyz
         'x, y, z' 
loop_
  _atom_site_label
  _atom_site_occupancy
  _atom_site_fract_x
  _atom_site_fract_y
  _atom_site_fract_z
  _atom_site_thermal_displace_type
  _atom_site_B_iso_or_equiv
  _atom_site_type_symbol
  _atom_site_charge
         C1        1.0000    0.92660   0.50350   0.96640   Biso      1.000     C          -0.082459           
         C2        1.0000    0.60850   0.08200   0.55920   Biso      1.000     C          0.095372  
         C3        1.0000    0.62540   0.13260   0.59900   Biso      1.000     C          -0.187704           
         C4        1.0000    0.55350   0.17510   0.63260   Biso      1.000     C          0.156035  
         C5        1.0000    0.46690   0.16820   0.62560   Biso      1.000     C          -0.179576           
         C6        1.0000    0.45360   0.11630   0.58700   Biso      1.000     C          0.093086  
         C7        1.0000    0.01140   0.79790   0.88540   Biso      1.000     C          -0.106977           
         C8        1.0000    0.01010   0.83240   0.79860   Biso      1.000     C          -0.113188           
         C9        1.0000    0.09890   0.88470   0.71220   Biso      1.000     C          -0.033642           
         C10       1.0000    0.09460   0.91660   0.61880   Biso      1.000     C          0.577567  
         C11       1.0000    0.47510   0.46540   0.09360   Biso      1.000     C          -0.043123           
         C12       1.0000    0.57340   0.46990   0.03360   Biso      1.000     C          -0.082359           
         C13       1.0000    0.59520   0.50610   0.93780   Biso      1.000     C          -0.047701           
         C14       1.0000    0.57010   0.22840   0.67540   Biso      1.000     C          -0.142983           
         C15       1.0000    0.69170   0.52170   0.85400   Biso      1.000     C          0.438416  
         C16       1.0000    0.75450   0.59620   0.67540   Biso      1.000     C          -0.137162           
         C17       1.0000    0.83230   0.85880   0.55920   Biso      1.000     C          0.096816  
         C18       1.0000    0.77560   0.76840   0.59900   Biso      1.000     C          -0.187269           
         C19       1.0000    0.81390   0.69230   0.63260   Biso      1.000     C          0.157034  
         C20       1.0000    0.90750   0.70620   0.62560   Biso      1.000     C          -0.179763           
         C21       1.0000    0.95940   0.79670   0.58700   Biso      1.000     C          0.092261  
         C22       1.0000    0.89680   0.18330   0.11460   Biso      1.000     C          -0.108466           
         C23       1.0000    0.80870   0.13100   0.20140   Biso      1.000     C          -0.11275  
         C24       1.0000    0.81110   0.09690   0.28780   Biso      1.000     C          -0.035082           
         C25       1.0000    0.71340   0.03540   0.38120   Biso      1.000     C          0.58038   
         C26       1.0000    0.56870   0.05900   0.90640   Biso      1.000     C          -0.047793           
         C27       1.0000    0.60700   0.00350   0.96640   Biso      1.000     C          -0.080128           
         C28       1.0000    0.57570   0.57230   0.79960   Biso      1.000     C          0.439926  
         C29       1.0000    0.53300   0.94390   0.06220   Biso      1.000     C          -0.045971           
         C30       1.0000    0.62470   0.12810   0.79960   Biso      1.000     C          0.434727  
         C31       1.0000    0.46700   0.05610   0.93780   Biso      1.000     C          -0.045963           
         C32       1.0000    0.40110   0.59690   0.28780   Biso      1.000     C          -0.033486           
         C33       1.0000    0.48990   0.63100   0.20140   Biso      1.000     C          -0.114456           
         C34       1.0000    0.48860   0.68330   0.11460   Biso      1.000     C          -0.106161           
         C35       1.0000    0.04640   0.70330   0.41300   Biso      1.000     C          0.093127  
         C36       1.0000    0.03310   0.79380   0.37440   Biso      1.000     C          -0.179519           
         C37       1.0000    0.94650   0.80770   0.36740   Biso      1.000     C          0.15683   
         C38       1.0000    0.87460   0.73160   0.40100   Biso      1.000     C          -0.188189           
         C39       1.0000    0.89150   0.64120   0.44080   Biso      1.000     C          0.096848  
         C40       1.0000    0.92990   0.90380   0.32460   Biso      1.000     C          -0.137567           
         C41       1.0000    0.87530   0.92770   0.20040   Biso      1.000     C          0.43901   
         C42       1.0000    0.04570   0.97830   0.14600   Biso      1.000     C          0.437718  
         C43       1.0000    0.03300   0.99390   0.06220   Biso      1.000     C          -0.046487           
         C44       1.0000    0.45430   0.12430   0.85400   Biso      1.000     C          0.432256  
         C45       1.0000    0.10700   0.03010   0.96640   Biso      1.000     C          -0.079595           
         C46       1.0000    0.21340   0.58340   0.38120   Biso      1.000     C          0.579088  
         C47       1.0000    0.31110   0.61530   0.28780   Biso      1.000     C          -0.035761           
         C48       1.0000    0.30870   0.66760   0.20140   Biso      1.000     C          -0.110814           
         C49       1.0000    0.39680   0.70210   0.11460   Biso      1.000     C          -0.110137           
         C50       1.0000    0.90480   0.44390   0.06220   Biso      1.000     C          -0.045771           
         C51       1.0000    0.45940   0.61630   0.58700   Biso      1.000     C          0.091729  
         C52       1.0000    0.10320   0.81670   0.88540   Biso      1.000     C          -0.108467           
         C53       1.0000    0.19130   0.86900   0.79860   Biso      1.000     C          -0.112751           
         C54       1.0000    0.18890   0.90310   0.71220   Biso      1.000     C          -0.035081           
         C55       1.0000    0.28660   0.96460   0.61880   Biso      1.000     C          0.580381  
         C56       1.0000    0.43130   0.94100   0.09360   Biso      1.000     C          -0.047782           
         C57       1.0000    0.39300   0.99650   0.03360   Biso      1.000     C          -0.080128           
         C58       1.0000    0.06870   0.03460   0.90640   Biso      1.000     C          -0.04684  
         C59       1.0000    0.40540   0.53540   0.38120   Biso      1.000     C          0.577754  
         C60       1.0000    0.54570   0.87570   0.14600   Biso      1.000     C          0.432256  
         C61       1.0000    0.42990   0.77160   0.32460   Biso      1.000     C          -0.142984           
         C62       1.0000    0.59890   0.40310   0.71220   Biso      1.000     C          -0.033486           
         C63       1.0000    0.51010   0.36900   0.79860   Biso      1.000     C          -0.114455           
         C64       1.0000    0.51140   0.31670   0.88540   Biso      1.000     C          -0.106161           
         C65       1.0000    0.95360   0.29670   0.58700   Biso      1.000     C          0.093126  
         C66       1.0000    0.96690   0.20620   0.62560   Biso      1.000     C          -0.179519           
         C67       1.0000    0.05350   0.19230   0.63260   Biso      1.000     C          0.15683   
         C68       1.0000    0.12540   0.26840   0.59900   Biso      1.000     C          -0.188189           
         C69       1.0000    0.10850   0.35880   0.55920   Biso      1.000     C          0.096848  
         C70       1.0000    0.07010   0.09620   0.67540   Biso      1.000     C          -0.137567           
         C71       1.0000    0.12470   0.07230   0.79960   Biso      1.000     C          0.439014  
         C72       1.0000    0.95430   0.02170   0.85400   Biso      1.000     C          0.437717  
         C73       1.0000    0.96700   0.00610   0.93780   Biso      1.000     C          -0.046475           
         C74       1.0000    0.59460   0.46460   0.61880   Biso      1.000     C          0.577754  
         C75       1.0000    0.89300   0.96990   0.03360   Biso      1.000     C          -0.079598           
         C76       1.0000    0.78660   0.41660   0.61880   Biso      1.000     C          0.579087  
         C77       1.0000    0.68890   0.38470   0.71220   Biso      1.000     C          -0.03576  
         C78       1.0000    0.69130   0.33240   0.79860   Biso      1.000     C          -0.110814           
         C79       1.0000    0.60320   0.29790   0.88540   Biso      1.000     C          -0.110137           
         C80       1.0000    0.54060   0.38370   0.41300   Biso      1.000     C          0.09173   
         C81       1.0000    0.59250   0.33180   0.37440   Biso      1.000     C          -0.178669           
         C82       1.0000    0.68610   0.32490   0.36740   Biso      1.000     C          0.155693  
         C83       1.0000    0.72440   0.36740   0.40100   Biso      1.000     C          -0.187204           
         C84       1.0000    0.66770   0.41800   0.44080   Biso      1.000     C          0.094433  
         C85       1.0000    0.74550   0.27160   0.32460   Biso      1.000     C          -0.136626           
         C86       1.0000    0.92430   0.37190   0.20040   Biso      1.000     C          0.440287  
         C87       1.0000    0.80830   0.37570   0.14600   Biso      1.000     C          0.437537  
         C88       1.0000    0.93130   0.96540   0.09360   Biso      1.000     C          -0.046825           
         C89       1.0000    0.37530   0.87190   0.20040   Biso      1.000     C          0.434725  
         C90       1.0000    0.97510   0.44100   0.09360   Biso      1.000     C          -0.044767           
         C91       1.0000    0.09520   0.55610   0.93780   Biso      1.000     C          -0.045773           
         C92       1.0000    0.39150   0.91800   0.44080   Biso      1.000     C          0.095372  
         C93       1.0000    0.37460   0.86740   0.40100   Biso      1.000     C          -0.187703           
         C94       1.0000    0.44650   0.82490   0.36740   Biso      1.000     C          0.156035  
         C95       1.0000    0.53310   0.83180   0.37440   Biso      1.000     C          -0.179577           
         C96       1.0000    0.54640   0.88370   0.41300   Biso      1.000     C          0.093085  
         C97       1.0000    0.98860   0.20210   0.11460   Biso      1.000     C          -0.106978           
         C98       1.0000    0.98990   0.16760   0.20140   Biso      1.000     C          -0.113188           
         C99       1.0000    0.90110   0.11530   0.28780   Biso      1.000     C          -0.03364  
         C100      1.0000    0.90540   0.08340   0.38120   Biso      1.000     C          0.577567  
         C101      1.0000    0.52490   0.53460   0.90640   Biso      1.000     C          -0.043116           
         C102      1.0000    0.42660   0.53010   0.96640   Biso      1.000     C          -0.08236  
         C103      1.0000    0.40480   0.49390   0.06220   Biso      1.000     C          -0.047695           
         C104      1.0000    0.30830   0.47830   0.14600   Biso      1.000     C          0.438415  
         C105      1.0000    0.42430   0.42770   0.20040   Biso      1.000     C          0.439927  
         C106      1.0000    0.24550   0.40380   0.32460   Biso      1.000     C          -0.137162           
         C107      1.0000    0.16770   0.14120   0.44080   Biso      1.000     C          0.096816  
         C108      1.0000    0.22440   0.23160   0.40100   Biso      1.000     C          -0.187269           
         C109      1.0000    0.18610   0.30770   0.36740   Biso      1.000     C          0.157034  
         C110      1.0000    0.09250   0.29380   0.37440   Biso      1.000     C          -0.179763           
         C111      1.0000    0.04060   0.20330   0.41300   Biso      1.000     C          0.09226   
         C112      1.0000    0.40750   0.66820   0.62560   Biso      1.000     C          -0.178669           
         C113      1.0000    0.31390   0.67510   0.63260   Biso      1.000     C          0.155693  
         C114      1.0000    0.27560   0.63260   0.59900   Biso      1.000     C          -0.187203           
         C115      1.0000    0.33230   0.58200   0.55920   Biso      1.000     C          0.094433  
         C116      1.0000    0.25450   0.72840   0.67540   Biso      1.000     C          -0.136627           
         C117      1.0000    0.07570   0.62810   0.79960   Biso      1.000     C          0.440286  
         C118      1.0000    0.19170   0.62430   0.85400   Biso      1.000     C          0.437537  
         C119      1.0000    0.07340   0.49650   0.03360   Biso      1.000     C          -0.082455           
         C120      1.0000    0.02490   0.55900   0.90640   Biso      1.000     C          -0.044764           
         Cu1       1.0000    0.50000   0.50000   0.50000   Biso      1.000     Cu          0.750034  
         Cu2       1.0000    0.00000   0.50000   0.50000   Biso      1.000     Cu          0.751744  
         Cu3       1.0000    0.00000   0.00000   0.50000   Biso      1.000     Cu          0.751115  
         Cu4       1.0000    0.50000   0.00000   0.50000   Biso      1.000     Cu          0.751693  
         H1        1.0000    0.80470   0.91080   0.53620   Biso      1.000     H          0.104248  
         H2        1.0000    0.72350   0.59750   0.63540   Biso      1.000     H          0.126614  
         H3        1.0000    0.80070   0.55380   0.67560   Biso      1.000     H          0.127662  
         H4        1.0000    0.62190   0.45020   0.05560   Biso      1.000     H          0.142164  
         H5        1.0000    0.94810   0.82020   0.79840   Biso      1.000     H          0.122122  
         H6        1.0000    0.95060   0.76160   0.94480   Biso      1.000     H          0.109845  
         H7        1.0000    0.39190   0.11050   0.58420   Biso      1.000     H          0.096454  
         H8        1.0000    0.10460   0.79360   0.94480   Biso      1.000     H          0.109933  
         H9        1.0000    0.68680   0.13710   0.60260   Biso      1.000     H          0.14071   
         H10       1.0000    0.65910   0.05300   0.53620   Biso      1.000     H          0.105008  
         H11       1.0000    0.64110   0.26710   0.63540   Biso      1.000     H          0.126491  
         H12       1.0000    0.52370   0.27060   0.67560   Biso      1.000     H          0.1281    
         H13       1.0000    0.32250   0.99420   0.05560   Biso      1.000     H          0.14222   
         H14       1.0000    0.25350   0.88140   0.79840   Biso      1.000     H          0.122104  
         H15       1.0000    0.97610   0.19470   0.41580   Biso      1.000     H          0.096564  
         H16       1.0000    0.71060   0.76030   0.60260   Biso      1.000     H          0.139957  
         H17       1.0000    0.41620   0.19800   0.64680   Biso      1.000     H          0.143435  
         H18       1.0000    0.93700   0.65520   0.64680   Biso      1.000     H          0.143538  
         H19       1.0000    0.89540   0.20640   0.05520   Biso      1.000     H          0.109933  
         H20       1.0000    0.19530   0.08920   0.46380   Biso      1.000     H          0.104248  
         H21       1.0000    0.27650   0.40250   0.36460   Biso      1.000     H          0.126615  
         H22       1.0000    0.19930   0.44620   0.32440   Biso      1.000     H          0.127662  
         H23       1.0000    0.37810   0.54980   0.94440   Biso      1.000     H          0.142164  
         H24       1.0000    0.05190   0.17980   0.20160   Biso      1.000     H          0.122122  
         H25       1.0000    0.04940   0.23840   0.05520   Biso      1.000     H          0.109846  
         H26       1.0000    0.02390   0.80530   0.58420   Biso      1.000     H          0.096564  
         H27       1.0000    0.60810   0.88950   0.41580   Biso      1.000     H          0.096454  
         H28       1.0000    0.31320   0.86290   0.39740   Biso      1.000     H          0.14071   
         H29       1.0000    0.34090   0.94700   0.46380   Biso      1.000     H          0.105008  
         H30       1.0000    0.35890   0.73290   0.36460   Biso      1.000     H          0.126491  
         H31       1.0000    0.47630   0.72940   0.32440   Biso      1.000     H          0.1281    
         H32       1.0000    0.67750   0.00580   0.94440   Biso      1.000     H          0.14222   
         H33       1.0000    0.74650   0.11860   0.20160   Biso      1.000     H          0.122105  
         H34       1.0000    0.58380   0.80200   0.35320   Biso      1.000     H          0.143435  
         H35       1.0000    0.28940   0.23970   0.39740   Biso      1.000     H          0.139956  
         H36       1.0000    0.39540   0.73840   0.05520   Biso      1.000     H          0.110489  
         H37       1.0000    0.17750   0.04980   0.94440   Biso      1.000     H          0.141793  
         H38       1.0000    0.14110   0.09750   0.63540   Biso      1.000     H          0.127213  
         H39       1.0000    0.15910   0.41080   0.53620   Biso      1.000     H          0.104757  
         H40       1.0000    0.18680   0.26030   0.60260   Biso      1.000     H          0.140435  
         H41       1.0000    0.91620   0.15520   0.64680   Biso      1.000     H          0.143198  
         H42       1.0000    0.89190   0.30530   0.58420   Biso      1.000     H          0.097154  
         H43       1.0000    0.45060   0.29360   0.94480   Biso      1.000     H          0.10983   
         H44       1.0000    0.02370   0.05380   0.67560   Biso      1.000     H          0.127519  
         H45       1.0000    0.44810   0.38140   0.79840   Biso      1.000     H          0.12258   
         H46       1.0000    0.30070   0.77060   0.67560   Biso      1.000     H          0.127415  
         H47       1.0000    0.22350   0.76710   0.63540   Biso      1.000     H          0.127153  
         H48       1.0000    0.30470   0.55300   0.53620   Biso      1.000     H          0.106068  
         H49       1.0000    0.21060   0.63710   0.60260   Biso      1.000     H          0.140428  
         H50       1.0000    0.43700   0.69800   0.64680   Biso      1.000     H          0.14342   
         H51       1.0000    0.52390   0.61050   0.58420   Biso      1.000     H          0.09693   
         H52       1.0000    0.12190   0.49420   0.05560   Biso      1.000     H          0.142567  
         H53       1.0000    0.82250   0.95020   0.05560   Biso      1.000     H          0.141793  
         H54       1.0000    0.75350   0.32020   0.79840   Biso      1.000     H          0.121986  
         H55       1.0000    0.60460   0.26160   0.94480   Biso      1.000     H          0.11049   
         H56       1.0000    0.97630   0.94620   0.32440   Biso      1.000     H          0.12752   
         H57       1.0000    0.85890   0.90250   0.36460   Biso      1.000     H          0.127213  
         H58       1.0000    0.84090   0.58920   0.46380   Biso      1.000     H          0.104757  
         H59       1.0000    0.81320   0.73970   0.39740   Biso      1.000     H          0.140435  
         H60       1.0000    0.08380   0.84480   0.35320   Biso      1.000     H          0.143199  
         H61       1.0000    0.10810   0.69470   0.41580   Biso      1.000     H          0.097154  
         H62       1.0000    0.54940   0.70640   0.05520   Biso      1.000     H          0.109829  
         H63       1.0000    0.55190   0.61860   0.20160   Biso      1.000     H          0.122579  
         H64       1.0000    0.87810   0.50580   0.94440   Biso      1.000     H          0.142567  
         H65       1.0000    0.69930   0.22940   0.32440   Biso      1.000     H          0.127415  
         H66       1.0000    0.77650   0.23290   0.36460   Biso      1.000     H          0.127153  
         H67       1.0000    0.69530   0.44700   0.46380   Biso      1.000     H          0.106068  
         H68       1.0000    0.78940   0.36290   0.39740   Biso      1.000     H          0.140429  
         H69       1.0000    0.56300   0.30200   0.35320   Biso      1.000     H          0.143421  
         H70       1.0000    0.47610   0.38950   0.41580   Biso      1.000     H          0.09693   
         H71       1.0000    0.24650   0.67980   0.20160   Biso      1.000     H          0.121985  
         H72       1.0000    0.06300   0.34480   0.35320   Biso      1.000     H          0.143538  
         N1        1.0000    0.17396   0.66366   0.77488   Biso      1.000     N          -0.180953           
         N2        1.0000    0.05116   0.06146   0.77488   Biso      1.000     N          -0.178482           
         N3        1.0000    0.42340   0.57390   0.55360   Biso      1.000     N          -0.220344           
         N4        1.0000    0.02300   0.37250   0.55360   Biso      1.000     N          -0.222126           
         N5        1.0000    0.82604   0.33634   0.22512   Biso      1.000     N          -0.180954           
         N6        1.0000    0.94884   0.93854   0.22512   Biso      1.000     N          -0.178482           
         N7        1.0000    0.07660   0.12750   0.44640   Biso      1.000     N          -0.221077           
         N8        1.0000    0.32604   0.43854   0.22512   Biso      1.000     N          -0.179391           
         N9        1.0000    0.47700   0.92610   0.44640   Biso      1.000     N          -0.221026           
         N10       1.0000    0.44884   0.83634   0.22512   Biso      1.000     N          -0.16138  
         N11       1.0000    0.92340   0.87250   0.55360   Biso      1.000     N          -0.221077           
         N12       1.0000    0.67396   0.56146   0.77488   Biso      1.000     N          -0.179391           
         N13       1.0000    0.52300   0.07390   0.55360   Biso      1.000     N          -0.221026           
         N14       1.0000    0.57660   0.42610   0.44640   Biso      1.000     N          -0.220344           
         N15       1.0000    0.55116   0.16366   0.77488   Biso      1.000     N          -0.161381           
         N16       1.0000    0.97700   0.62750   0.44640   Biso      1.000     N          -0.222126           
         O1        1.0000    0.21718   0.59598   0.44324   Biso      1.000     O          -0.574953           
         O2        1.0000    0.13417   0.54717   0.38766   Biso      1.000     O          -0.559399           
         O3        1.0000    0.72826   0.35716   0.14868   Biso      1.000     O          -0.413661           
         O4        1.0000    0.33958   0.46078   0.44324   Biso      1.000     O          -0.574079           
         O5        1.0000    0.47817   0.56517   0.38766   Biso      1.000     O          -0.558429           
         O6        1.0000    0.21447   0.10517   0.74386   Biso      1.000     O          -0.410071           
         O7        1.0000    0.78282   0.40402   0.55676   Biso      1.000     O          -0.574952           
         O8        1.0000    0.86583   0.45283   0.61234   Biso      1.000     O          -0.559399           
         O9        1.0000    0.27174   0.64284   0.85132   Biso      1.000     O          -0.413662           
         O10       1.0000    0.04167   0.65097   0.74386   Biso      1.000     O          -0.410152           
         O11       1.0000    0.66042   0.53922   0.55676   Biso      1.000     O          -0.574078           
         O12       1.0000    0.52183   0.43483   0.61234   Biso      1.000     O          -0.558428           
         O13       1.0000    0.95833   0.34903   0.25614   Biso      1.000     O          -0.410151           
         O14       1.0000    0.87694   0.00584   0.85132   Biso      1.000     O          -0.414448           
         O15       1.0000    0.37694   0.14284   0.85132   Biso      1.000     O          -0.414175           
         O16       1.0000    0.71447   0.15097   0.74386   Biso      1.000     O          -0.411028           
         O17       1.0000    0.97817   0.04717   0.38766   Biso      1.000     O          -0.559063           
         O18       1.0000    0.83958   0.09598   0.44324   Biso      1.000     O          -0.573567           
         O19       1.0000    0.45833   0.39483   0.25614   Biso      1.000     O          -0.410518           
         O20       1.0000    0.22826   0.49416   0.14868   Biso      1.000     O          -0.414443           
         O21       1.0000    0.63417   0.06517   0.38766   Biso      1.000     O          -0.560012           
         O22       1.0000    0.71718   0.96078   0.44324   Biso      1.000     O          -0.575434           
         O23       1.0000    0.78553   0.89483   0.25614   Biso      1.000     O          -0.41007  
         O24       1.0000    0.28553   0.84903   0.25614   Biso      1.000     O          -0.411028           
         O25       1.0000    0.02183   0.95283   0.61234   Biso      1.000     O          -0.559063           
         O26       1.0000    0.16042   0.90402   0.55676   Biso      1.000     O          -0.573567           
         O27       1.0000    0.54167   0.60517   0.74386   Biso      1.000     O          -0.410518           
         O28       1.0000    0.77174   0.50584   0.85132   Biso      1.000     O          -0.414444           
         O29       1.0000    0.36583   0.93483   0.61234   Biso      1.000     O          -0.560012           
         O30       1.0000    0.28282   0.03922   0.55676   Biso      1.000     O          -0.575435           
         O31       1.0000    0.62306   0.85716   0.14868   Biso      1.000     O          -0.414174           
         O32       1.0000    0.12306   0.99416   0.14868   Biso      1.000     O          -0.414448 