
##########################################################################
#               Crystallographic Information Format file
#               Produced by PyCifRW module
#
#  This is a CIF file.  CIF has been adopted by the International
#  Union of Crystallography as the standard for data archiving and
#  transmission.
#
#  For information on this file format, follow the CIF links at
#  http://www.iucr.org
##########################################################################

data_image0

_cell_length_a                          9.3824
_cell_length_b                          13.6113
_cell_length_c                          18.2701
_cell_angle_alpha                       74.7319
_cell_angle_beta                        86.3824
_cell_angle_gamma                       88.5107
_symmetry_space_group_name_H-M          'P 1'
_symmetry_int_tables_number             1
loop_
  _symmetry_equiv_pos_as_xyz
         'x, y, z' 
loop_
  _atom_site_label
  _atom_site_occupancy
  _atom_site_fract_x
  _atom_site_fract_y
  _atom_site_fract_z
  _atom_site_thermal_displace_type
  _atom_site_B_iso_or_equiv
  _atom_site_type_symbol
  _atom_site_charge
         C1        1.0000    0.66470   0.09420   0.63830   Biso      1.000     C          0.07513   
         C2        1.0000    0.21290   0.17130   0.57150   Biso      1.000     C          -0.258881           
         C3        1.0000    0.50980   0.15250   0.37600   Biso      1.000     C          -0.065384           
         C4        1.0000    0.28340   0.22730   0.36320   Biso      1.000     C          -0.25703899999999996          
         C5        1.0000    0.97680   0.15040   0.87320   Biso      1.000     C          0.590666  
         C6        1.0000    0.98020   0.22520   0.79570   Biso      1.000     C          -0.023852           
         C7        1.0000    0.10500   0.27720   0.76630   Biso      1.000     C          -0.105011           
         C8        1.0000    0.97710   0.11620   0.57770   Biso      1.000     C          -0.074692           
         C9        1.0000    0.11090   0.34620   0.69540   Biso      1.000     C          -0.147992           
         C10       1.0000    0.86630   0.31220   0.68170   Biso      1.000     C          -0.150017           
         C11       1.0000    0.86110   0.24220   0.75250   Biso      1.000     C          -0.101217           
         C12       1.0000    0.94630   0.40300   0.51510   Biso      1.000     C          -0.174595           
         C13       1.0000    0.99530   0.43670   0.57470   Biso      1.000     C          0.034378  
         C14       1.0000    0.05100   0.53520   0.55860   Biso      1.000     C          0.05874600000000001           
         C15       1.0000    0.10110   0.58090   0.62010   Biso      1.000     C          -0.069124           
         C16       1.0000    0.98970   0.36480   0.65270   Biso      1.000     C          0.08662   
         C17       1.0000    0.30850   0.59610   0.68390   Biso      1.000     C          -0.255289           
         C18       1.0000    0.51020   0.02800   0.87390   Biso      1.000     C          0.596165  
         C19       1.0000    0.68450   0.00180   0.77040   Biso      1.000     C          -0.08388  
         C20       1.0000    0.94290   0.18620   0.28310   Biso      1.000     C          -0.15749000000000002          
         C21       1.0000    0.82390   0.13110   0.32020   Biso      1.000     C          0.06980700000000001           
         C22       1.0000    0.75620   0.06930   0.28200   Biso      1.000     C          -0.152398           
         C23       1.0000    0.80760   0.06300   0.21080   Biso      1.000     C          -0.083054           
         C24       1.0000    0.92820   0.11640   0.17600   Biso      1.000     C          -0.013647999999999999         
         C25       1.0000    0.99040   0.10170   0.10170   Biso      1.000     C          0.580516  
         C26       1.0000    0.73310   0.02220   0.69450   Biso      1.000     C          -0.154906           
         C27       1.0000    0.63350   0.13320   0.42720   Biso      1.000     C          0.061581  
         C28       1.0000    0.71070   0.11070   0.55670   Biso      1.000     C          0.019022999999999998          
         C29       1.0000    0.85370   0.11470   0.52940   Biso      1.000     C          0.0643    
         C30       1.0000    0.88330   0.12280   0.45110   Biso      1.000     C          -0.196929           
         C31       1.0000    0.54660   0.14670   0.66130   Biso      1.000     C          -0.147575           
         C32       1.0000    0.49800   0.12540   0.73610   Biso      1.000     C          -0.095863           
         C33       1.0000    0.56540   0.05300   0.79160   Biso      1.000     C          -0.025767           
         C34       1.0000    0.60440   0.12190   0.50400   Biso      1.000     C          -0.188531           
         C35       1.0000    0.00960   0.89830   0.89830   Biso      1.000     C          0.5805140000000001  
         C36       1.0000    0.07180   0.88360   0.82400   Biso      1.000     C          -0.01365  
         C37       1.0000    0.19240   0.93700   0.78920   Biso      1.000     C          -0.08305599999999999          
         C38       1.0000    0.49020   0.84750   0.62400   Biso      1.000     C          -0.065385           
         C39       1.0000    0.71660   0.77270   0.63680   Biso      1.000     C          -0.25704  
         C40       1.0000    0.02320   0.84960   0.12680   Biso      1.000     C          0.590666  
         C41       1.0000    0.01980   0.77480   0.20430   Biso      1.000     C          -0.023851           
         C42       1.0000    0.89500   0.72280   0.23370   Biso      1.000     C          -0.10500999999999999          
         C43       1.0000    0.88910   0.65380   0.30460   Biso      1.000     C          -0.147992           
         C44       1.0000    0.78710   0.82870   0.42850   Biso      1.000     C          -0.258881           
         C45       1.0000    0.01030   0.63520   0.34730   Biso      1.000     C          0.086618  
         C46       1.0000    0.13890   0.75780   0.24750   Biso      1.000     C          -0.10121799999999999          
         C47       1.0000    0.05370   0.59700   0.48490   Biso      1.000     C          -0.174592           
         C48       1.0000    0.00470   0.56330   0.42530   Biso      1.000     C          0.034376  
         C49       1.0000    0.94900   0.46480   0.44140   Biso      1.000     C          0.058749  
         C50       1.0000    0.89890   0.41910   0.37990   Biso      1.000     C          -0.069124           
         C51       1.0000    0.69150   0.40390   0.31610   Biso      1.000     C          -0.255289           
         C52       1.0000    0.13370   0.68780   0.31830   Biso      1.000     C          -0.150014           
         C53       1.0000    0.02290   0.88380   0.42230   Biso      1.000     C          -0.074692           
         C54       1.0000    0.48980   0.97200   0.12610   Biso      1.000     C          0.596169  
         C55       1.0000    0.26690   0.97780   0.30550   Biso      1.000     C          -0.154909           
         C56       1.0000    0.24380   0.93070   0.71800   Biso      1.000     C          -0.152395           
         C57       1.0000    0.17610   0.86890   0.67980   Biso      1.000     C          0.06980599999999999           
         C58       1.0000    0.05710   0.81380   0.71690   Biso      1.000     C          -0.15749000000000002          
         C59       1.0000    0.00480   0.82230   0.78740   Biso      1.000     C          -0.094792           
         C60       1.0000    0.22150   0.86980   0.59970   Biso      1.000     C          0.015285  
         C61       1.0000    0.36650   0.86680   0.57280   Biso      1.000     C          0.061582000000000005          
         C62       1.0000    0.39560   0.87810   0.49600   Biso      1.000     C          -0.188531           
         C63       1.0000    0.28930   0.88930   0.44330   Biso      1.000     C          0.019022  
         C64       1.0000    0.14630   0.88530   0.47060   Biso      1.000     C          0.0643    
         C65       1.0000    0.11670   0.87720   0.54890   Biso      1.000     C          -0.196928           
         C66       1.0000    0.33530   0.90580   0.36170   Biso      1.000     C          0.07513099999999999           
         C67       1.0000    0.45340   0.85330   0.33870   Biso      1.000     C          -0.147574           
         C68       1.0000    0.50200   0.87460   0.26390   Biso      1.000     C          -0.095864           
         C69       1.0000    0.43460   0.94700   0.20840   Biso      1.000     C          -0.025769999999999998         
         C70       1.0000    0.31550   0.99820   0.22960   Biso      1.000     C          -0.08387599999999999          
         C71       1.0000    0.99520   0.17770   0.21260   Biso      1.000     C          -0.094792           
         C72       1.0000    0.77850   0.13020   0.40030   Biso      1.000     C          0.015285  
         Eu1       1.0000    0.22305   0.03201   0.99712   Biso      1.000     Eu          1.366752  
         Eu2       1.0000    0.77695   0.96799   0.00288   Biso      1.000     Eu          1.366766  
         H1        1.0000    0.69380   0.32970   0.32540   Biso      1.000     H          0.11339500000000001           
         H2        1.0000    0.07530   0.65410   0.60880   Biso      1.000     H          0.07865599999999999           
         H3        1.0000    0.05500   0.54590   0.67010   Biso      1.000     H          0.070715  
         H4        1.0000    0.91020   0.33590   0.52530   Biso      1.000     H          0.12227400000000001           
         H5        1.0000    0.77570   0.20580   0.77140   Biso      1.000     H          0.11084100000000001           
         H6        1.0000    0.78370   0.32400   0.65290   Biso      1.000     H          0.11596   
         H7        1.0000    0.19730   0.38100   0.67580   Biso      1.000     H          0.118539  
         H8        1.0000    0.18740   0.26530   0.79520   Biso      1.000     H          0.120469  
         H9        1.0000    0.74760   0.43480   0.26900   Biso      1.000     H          0.11583900000000001           
         H10       1.0000    0.30160   0.25670   0.30850   Biso      1.000     H          0.11436500000000001           
         H11       1.0000    0.21750   0.27170   0.38380   Biso      1.000     H          0.137679  
         H12       1.0000    0.54480   0.18300   0.32280   Biso      1.000     H          0.075515  
         H13       1.0000    0.46250   0.08750   0.37840   Biso      1.000     H          0.078145  
         H14       1.0000    0.25530   0.10280   0.58100   Biso      1.000     H          0.107117  
         H15       1.0000    0.18960   0.18760   0.62000   Biso      1.000     H          0.111471  
         H16       1.0000    0.28120   0.22100   0.54080   Biso      1.000     H          0.135978  
         H17       1.0000    0.94620   0.14610   0.62000   Biso      1.000     H          0.083602  
         H18       1.0000    0.01180   0.04590   0.59950   Biso      1.000     H          0.084882  
         H19       1.0000    0.81440   0.98650   0.68070   Biso      1.000     H          0.105527  
         H20       1.0000    0.73280   0.95270   0.80790   Biso      1.000     H          0.119244  
         H21       1.0000    0.41670   0.16100   0.75010   Biso      1.000     H          0.115497  
         H22       1.0000    0.49970   0.19760   0.62450   Biso      1.000     H          0.119074  
         H23       1.0000    0.98030   0.12310   0.43270   Biso      1.000     H          0.111893  
         H24       1.0000    0.50730   0.12160   0.52220   Biso      1.000     H          0.11430799999999999           
         H25       1.0000    0.07810   0.21420   0.18910   Biso      1.000     H          0.120307  
         H26       1.0000    0.98850   0.23030   0.30670   Biso      1.000     H          0.110641  
         H27       1.0000    0.67420   0.03160   0.30550   Biso      1.000     H          0.10700899999999999           
         H28       1.0000    0.75990   0.02180   0.18560   Biso      1.000     H          0.11725799999999999           
         H29       1.0000    0.33660   0.80950   0.02980   Biso      1.000     H          0.379063  
         H30       1.0000    0.40760   0.57160   0.68840   Biso      1.000     H          0.14113900000000001           
         H31       1.0000    0.30620   0.67030   0.67460   Biso      1.000     H          0.11339400000000001           
         H32       1.0000    0.24100   0.15990   0.37210   Biso      1.000     H          0.108646  
         H33       1.0000    0.66340   0.19050   0.97020   Biso      1.000     H          0.37905300000000003           
         H34       1.0000    0.59240   0.42840   0.31160   Biso      1.000     H          0.14114100000000002           
         H35       1.0000    0.92470   0.34590   0.39120   Biso      1.000     H          0.07865599999999999           
         H36       1.0000    0.94500   0.45410   0.32990   Biso      1.000     H          0.070716  
         H37       1.0000    0.08980   0.66410   0.47470   Biso      1.000     H          0.12227400000000001           
         H38       1.0000    0.25240   0.56520   0.73100   Biso      1.000     H          0.11584000000000001           
         H39       1.0000    0.21630   0.67600   0.34710   Biso      1.000     H          0.11596   
         H40       1.0000    0.80270   0.61900   0.32420   Biso      1.000     H          0.118539  
         H41       1.0000    0.81260   0.73470   0.20480   Biso      1.000     H          0.120468  
         H42       1.0000    0.75900   0.84010   0.62790   Biso      1.000     H          0.10864700000000001           
         H43       1.0000    0.69840   0.74330   0.69150   Biso      1.000     H          0.11436600000000001           
         H44       1.0000    0.78250   0.72830   0.61620   Biso      1.000     H          0.137679  
         H45       1.0000    0.45520   0.81700   0.67720   Biso      1.000     H          0.075516  
         H46       1.0000    0.53750   0.91250   0.62160   Biso      1.000     H          0.07814600000000001           
         H47       1.0000    0.74470   0.89720   0.41900   Biso      1.000     H          0.107118  
         H48       1.0000    0.22430   0.79420   0.22860   Biso      1.000     H          0.11084200000000001           
         H49       1.0000    0.71880   0.77900   0.45920   Biso      1.000     H          0.135978  
         H50       1.0000    0.81040   0.81240   0.38000   Biso      1.000     H          0.111472  
         H51       1.0000    0.24010   0.97820   0.81440   Biso      1.000     H          0.117256  
         H52       1.0000    0.32580   0.96840   0.69450   Biso      1.000     H          0.10700699999999999           
         H53       1.0000    0.92190   0.78580   0.81090   Biso      1.000     H          0.120304  
         H54       1.0000    0.49270   0.87840   0.47780   Biso      1.000     H          0.11430799999999999           
         H55       1.0000    0.01970   0.87690   0.56730   Biso      1.000     H          0.111893  
         H56       1.0000    0.01150   0.76970   0.69330   Biso      1.000     H          0.11064   
         H57       1.0000    0.58330   0.83900   0.24990   Biso      1.000     H          0.115496  
         H58       1.0000    0.26720   0.04730   0.19210   Biso      1.000     H          0.119243  
         H59       1.0000    0.18560   0.01350   0.31930   Biso      1.000     H          0.105527  
         H60       1.0000    0.98820   0.95410   0.40050   Biso      1.000     H          0.084883  
         H61       1.0000    0.05380   0.85390   0.38000   Biso      1.000     H          0.083603  
         H62       1.0000    0.50030   0.80240   0.37550   Biso      1.000     H          0.119073  
         O1        1.0000    0.91660   0.85130   0.08880   Biso      1.000     O          -0.525947           
         O2        1.0000    0.88240   0.87130   0.91790   Biso      1.000     O          -0.526938           
         O3        1.0000    0.13310   0.90340   0.10550   Biso      1.000     O          -0.5449930000000001           
         O4        1.0000    0.41180   0.02580   0.07810   Biso      1.000     O          -0.47680600000000006          
         O5        1.0000    0.61030   0.93940   0.11120   Biso      1.000     O          -0.534269           
         O6        1.0000    0.91280   0.82520   0.46780   Biso      1.000     O          -0.165489           
         O7        1.0000    0.58620   0.78190   0.60030   Biso      1.000     O          -0.16779000000000002          
         O8        1.0000    0.08430   0.93980   0.93650   Biso      1.000     O          -0.540709           
         O9        1.0000    0.35210   0.86940   0.00200   Biso      1.000     O          -0.541663           
         O10       1.0000    0.41380   0.21810   0.39970   Biso      1.000     O          -0.167791           
         O11       1.0000    0.08340   0.14870   0.91120   Biso      1.000     O          -0.5259510000000001           
         O12       1.0000    0.86690   0.09660   0.89450   Biso      1.000     O          -0.544992           
         O13       1.0000    0.58820   0.97420   0.92190   Biso      1.000     O          -0.476804           
         O14       1.0000    0.38970   0.06060   0.88880   Biso      1.000     O          -0.5342680000000001           
         O15       1.0000    0.08720   0.17480   0.53220   Biso      1.000     O          -0.16549  
         O16       1.0000    0.91570   0.06020   0.06350   Biso      1.000     O          -0.540717           
         O17       1.0000    0.11760   0.12870   0.08210   Biso      1.000     O          -0.526936           
         O18       1.0000    0.75100   0.43160   0.37840   Biso      1.000     O          -0.18148399999999998          
         O19       1.0000    0.24900   0.56840   0.62160   Biso      1.000     O          -0.181483           
         O20       1.0000    0.64790   0.13060   0.99800   Biso      1.000     O          -0.541672 