
##########################################################################
#               Crystallographic Information Format file
#               Produced by PyCifRW module
#
#  This is a CIF file.  CIF has been adopted by the International
#  Union of Crystallography as the standard for data archiving and
#  transmission.
#
#  For information on this file format, follow the CIF links at
#  http://www.iucr.org
##########################################################################

data_image0

_cell_length_a                          11.0129
_cell_length_b                          13.3554
_cell_length_c                          15.843
_cell_angle_alpha                       114.929
_cell_angle_beta                        110.338
_cell_angle_gamma                       90
_symmetry_space_group_name_H-M          'P 1'
_symmetry_int_tables_number             1
loop_
  _symmetry_equiv_pos_as_xyz
         'x, y, z' 
loop_
  _atom_site_label
  _atom_site_occupancy
  _atom_site_fract_x
  _atom_site_fract_y
  _atom_site_fract_z
  _atom_site_thermal_displace_type
  _atom_site_B_iso_or_equiv
  _atom_site_type_symbol
  _atom_site_charge
         C1        1.0000    0.95580   0.67730   0.54280   Biso      1.000     C          -0.036687           
         C2        1.0000    0.55680   0.32360   0.47640   Biso      1.000     C          0.483163  
         C3        1.0000    0.41300   0.32270   0.45720   Biso      1.000     C          -0.036937           
         C4        1.0000    0.50810   0.84500   0.78560   Biso      1.000     C          0.448973  
         C5        1.0000    0.37420   0.77060   0.74660   Biso      1.000     C          0.020389  
         C6        1.0000    0.08040   0.67640   0.52360   Biso      1.000     C          0.4842    
         C7        1.0000    0.00810   0.94060   0.78560   Biso      1.000     C          0.448932  
         C8        1.0000    0.87420   0.97600   0.74660   Biso      1.000     C          0.018984  
         C9        1.0000    0.58040   0.84720   0.52360   Biso      1.000     C          0.485168  
         C10       1.0000    0.45580   0.86550   0.54280   Biso      1.000     C          -0.036583           
         C11       1.0000    0.22250   0.05940   0.21440   Biso      1.000     C          0.451247  
         C12       1.0000    0.12760   0.02400   0.25340   Biso      1.000     C          0.019154  
         C13       1.0000    0.05680   0.15280   0.47640   Biso      1.000     C          0.484019  
         C14       1.0000    0.62760   0.22940   0.25340   Biso      1.000     C          0.020157  
         C15       1.0000    0.91300   0.13450   0.45720   Biso      1.000     C          -0.037247           
         C16       1.0000    0.72250   0.15500   0.21440   Biso      1.000     C          0.451524  
         O1        1.0000    0.22090   0.62020   0.75480   Biso      1.000     O          -0.418612           
         O2        1.0000    0.17120   0.76040   0.56200   Biso      1.000     O          -0.435985           
         O3        1.0000    0.12540   0.58300   0.50580   Biso      1.000     O          -0.519838           
         O4        1.0000    0.88670   0.76490   0.54200   Biso      1.000     O          -0.328289           
         O5        1.0000    0.01060   0.65750   0.71340   Biso      1.000     O          -0.50527  
         O6        1.0000    0.86790   0.49240   0.55840   Biso      1.000     O          -0.747868           
         O7        1.0000    0.77360   0.67190   0.61840   Biso      1.000     O          -0.783188           
         O8        1.0000    0.33600   0.79720   0.91740   Biso      1.000     O          -0.812908           
         O9        1.0000    0.08510   0.02220   0.86760   Biso      1.000     O          -0.56378  
         O10       1.0000    0.05430   0.91410   0.71520   Biso      1.000     O          -0.548388           
         O11       1.0000    0.87080   0.97440   0.65540   Biso      1.000     O          -0.291512           
         O12       1.0000    0.83600   0.12020   0.91740   Biso      1.000     O          -0.81257  
         O13       1.0000    0.96710   0.19900   0.84960   Biso      1.000     O          -0.479768           
         O14       1.0000    0.46710   0.65060   0.84960   Biso      1.000     O          -0.479112           
         O15       1.0000    0.91860   0.87980   0.08260   Biso      1.000     O          -0.812149           
         O16       1.0000    0.37080   0.68100   0.65540   Biso      1.000     O          -0.29365  
         O17       1.0000    0.55430   0.80110   0.71520   Biso      1.000     O          -0.549565           
         O18       1.0000    0.58510   0.84540   0.86760   Biso      1.000     O          -0.564345           
         O19       1.0000    0.15520   0.32810   0.38160   Biso      1.000     O          -0.782633           
         O20       1.0000    0.30950   0.50760   0.44160   Biso      1.000     O          -0.747911           
         O21       1.0000    0.29720   0.34250   0.28660   Biso      1.000     O          -0.504789           
         O22       1.0000    0.34470   0.23510   0.45800   Biso      1.000     O          -0.327475           
         O23       1.0000    0.61960   0.41700   0.49420   Biso      1.000     O          -0.520197           
         O24       1.0000    0.60920   0.23960   0.43800   Biso      1.000     O          -0.435688           
         O25       1.0000    0.46610   0.37980   0.24520   Biso      1.000     O          -0.41942  
         O26       1.0000    0.61750   0.34940   0.15040   Biso      1.000     O          -0.479689           
         O27       1.0000    0.41860   0.20280   0.08260   Biso      1.000     O          -0.812665           
         O28       1.0000    0.71540   0.31900   0.34460   Biso      1.000     O          -0.292035           
         O29       1.0000    0.72090   0.13460   0.75480   Biso      1.000     O          -0.419294           
         O30       1.0000    0.67120   0.80160   0.56200   Biso      1.000     O          -0.437301           
         O31       1.0000    0.71750   0.15460   0.13240   Biso      1.000     O          -0.565132           
         O32       1.0000    0.38670   0.77710   0.54200   Biso      1.000     O          -0.329512           
         O33       1.0000    0.62540   0.92280   0.50580   Biso      1.000     O          -0.520946           
         O34       1.0000    0.80950   0.93400   0.44160   Biso      1.000     O          -0.75141  
         O35       1.0000    0.79720   0.94410   0.28660   Biso      1.000     O          -0.517009           
         O36       1.0000    0.84470   0.22290   0.45800   Biso      1.000     O          -0.329516           
         O37       1.0000    0.11960   0.07720   0.49420   Biso      1.000     O          -0.519055           
         O38       1.0000    0.10920   0.19840   0.43800   Biso      1.000     O          -0.435463           
         O39       1.0000    0.96610   0.86540   0.24520   Biso      1.000     O          -0.414724           
         O40       1.0000    0.65520   0.05350   0.38160   Biso      1.000     O          -0.785157           
         O41       1.0000    0.83910   0.19890   0.28480   Biso      1.000     O          -0.548983           
         O42       1.0000    0.21540   0.02560   0.34460   Biso      1.000     O          -0.296139           
         O43       1.0000    0.33910   0.08590   0.28480   Biso      1.000     O          -0.553857           
         O44       1.0000    0.21750   0.97780   0.13240   Biso      1.000     O          -0.566688           
         O45       1.0000    0.27360   0.94650   0.61840   Biso      1.000     O          -0.783664           
         O46       1.0000    0.36790   0.06600   0.55840   Biso      1.000     O          -0.747346           
         O47       1.0000    0.51060   0.05590   0.71340   Biso      1.000     O          -0.505308           
         O48       1.0000    0.11750   0.80100   0.15040   Biso      1.000     O          -0.478385           
         P1        1.0000    0.78540   0.01040   0.38900   Biso      1.000     P          1.180119  
         P2        1.0000    0.02580   0.88590   0.17860   Biso      1.000     P          1.110744  
         P3        1.0000    0.39640   0.98960   0.61100   Biso      1.000     P          1.179208  
         P4        1.0000    0.89640   0.62140   0.61100   Biso      1.000     P          1.177474  
         P5        1.0000    0.34720   0.70730   0.82140   Biso      1.000     P          1.110983  
         P6        1.0000    0.28540   0.37860   0.38900   Biso      1.000     P          1.178546  
         P7        1.0000    0.52580   0.29270   0.17860   Biso      1.000     P          1.112026  
         P8        1.0000    0.84720   0.11410   0.82140   Biso      1.000     P          1.112045  
         Pr1       1.0000    0.48210   0.00000   0.00000   Biso      1.000     Pr          2.165095  
         Pr2       1.0000    0.98210   0.00000   0.00000   Biso      1.000     Pr          2.163967  
         Pr3       1.0000    0.98530   0.37379   0.44240   Biso      1.000     Pr          2.153477  
         Pr4       1.0000    0.54290   0.62621   0.55760   Biso      1.000     Pr          2.153852  
         Pr5       1.0000    0.04290   0.93139   0.55760   Biso      1.000     Pr          2.15427   
         Pr6       1.0000    0.48530   0.06861   0.44240   Biso      1.000     Pr          2.153925 