
##########################################################################
#               Crystallographic Information Format file
#               Produced by PyCifRW module
#
#  This is a CIF file.  CIF has been adopted by the International
#  Union of Crystallography as the standard for data archiving and
#  transmission.
#
#  For information on this file format, follow the CIF links at
#  http://www.iucr.org
##########################################################################

data_image0

_cell_length_a                          10.4483
_cell_length_b                          15.0282
_cell_length_c                          16.775
_cell_angle_alpha                       65.385
_cell_angle_beta                        83.952
_cell_angle_gamma                       73.595
_symmetry_space_group_name_H-M          'P 1'
_symmetry_int_tables_number             1
loop_
  _symmetry_equiv_pos_as_xyz
         'x, y, z' 
loop_
  _atom_site_label
  _atom_site_occupancy
  _atom_site_fract_x
  _atom_site_fract_y
  _atom_site_fract_z
  _atom_site_thermal_displace_type
  _atom_site_B_iso_or_equiv
  _atom_site_type_symbol
  _atom_site_charge
         C1        1.0000    0.52230   0.81190   0.05405   Biso      1.000     C          -0.092284           
         C2        1.0000    0.57640   0.85540   0.09684   Biso      1.000     C          -0.174057           
         C3        1.0000    0.49470   0.93070   0.12113   Biso      1.000     C          0.017462000000000002          
         C4        1.0000    0.44760   0.02370   0.82956   Biso      1.000     C          -0.264719           
         C5        1.0000    0.58300   0.01617   0.69518   Biso      1.000     C          0.22733299999999998           
         C6        1.0000    0.47540   0.06720   0.73215   Biso      1.000     C          0.046616000000000005          
         C7        1.0000    0.39520   0.16190   0.67860   Biso      1.000     C          -0.18799000000000002          
         C8        1.0000    0.41810   0.20500   0.58914   Biso      1.000     C          -0.105366           
         C9        1.0000    0.52120   0.15360   0.55173   Biso      1.000     C          -0.164962           
         C10       1.0000    0.60490   0.06027   0.60388   Biso      1.000     C          0.047851  
         C11       1.0000    0.38660   0.84350   0.03407   Biso      1.000     C          -0.158296           
         C12       1.0000    0.72170   0.01120   0.56137   Biso      1.000     C          -0.267802           
         C13       1.0000    0.83730   0.05870   0.54785   Biso      1.000     C          0.034114  
         C14       1.0000    0.96800   0.16990   0.45284   Biso      1.000     C          -0.14463299999999998          
         C15       1.0000    0.05180   0.14640   0.52258   Biso      1.000     C          -0.159329           
         C16       1.0000    0.02800   0.07930   0.60644   Biso      1.000     C          0.060035000000000005          
         C17       1.0000    0.11520   0.05310   0.68375   Biso      1.000     C          -0.25948000000000004          
         C18       1.0000    0.98970   0.05320   0.82344   Biso      1.000     C          0.21568   
         C19       1.0000    0.04510   0.10530   0.74282   Biso      1.000     C          0.048443  
         C20       1.0000    0.03140   0.20860   0.71592   Biso      1.000     C          -0.18172  
         C21       1.0000    0.96420   0.25840   0.76779   Biso      1.000     C          -0.085225           
         C22       1.0000    0.92010   0.03690   0.61792   Biso      1.000     C          0.21409499999999998           
         C23       1.0000    0.30270   0.91780   0.05814   Biso      1.000     C          0.041505  
         C24       1.0000    0.35780   0.96119   0.10161   Biso      1.000     C          0.210181  
         C25       1.0000    0.15330   0.94850   0.04226   Biso      1.000     C          -0.264462           
         C26       1.0000    0.55240   0.97630   0.17044   Biso      1.000     C          -0.264719           
         C27       1.0000    0.41700   0.98383   0.30482   Biso      1.000     C          0.22733299999999998           
         C28       1.0000    0.52460   0.93280   0.26785   Biso      1.000     C          0.046616000000000005          
         C29       1.0000    0.60480   0.83810   0.32140   Biso      1.000     C          -0.18799000000000002          
         C30       1.0000    0.58190   0.79500   0.41086   Biso      1.000     C          -0.105366           
         C31       1.0000    0.47880   0.84640   0.44827   Biso      1.000     C          -0.164962           
         C32       1.0000    0.39510   0.93973   0.39612   Biso      1.000     C          0.047851  
         C33       1.0000    0.27830   0.98880   0.43863   Biso      1.000     C          -0.267802           
         C34       1.0000    0.07990   0.96310   0.38208   Biso      1.000     C          0.21409499999999998           
         C35       1.0000    0.16270   0.94130   0.45215   Biso      1.000     C          0.034114  
         C36       1.0000    0.13700   0.87380   0.53494   Biso      1.000     C          -0.18493900000000002          
         C37       1.0000    0.03200   0.83010   0.54716   Biso      1.000     C          -0.14463199999999998          
         C38       1.0000    0.94820   0.85360   0.47742   Biso      1.000     C          -0.15933  
         C39       1.0000    0.97200   0.92070   0.39356   Biso      1.000     C          0.060035000000000005          
         C40       1.0000    0.88480   0.94690   0.31625   Biso      1.000     C          -0.25948000000000004          
         C41       1.0000    0.01030   0.94680   0.17656   Biso      1.000     C          0.21568099999999998           
         C42       1.0000    0.95490   0.89470   0.25718   Biso      1.000     C          0.048443  
         C43       1.0000    0.96860   0.79140   0.28408   Biso      1.000     C          -0.18172  
         C44       1.0000    0.03580   0.74160   0.23221   Biso      1.000     C          -0.085225           
         C45       1.0000    0.09290   0.79320   0.15393   Biso      1.000     C          -0.156375           
         C46       1.0000    0.08170   0.89680   0.12535   Biso      1.000     C          0.009327  
         C47       1.0000    0.90710   0.20680   0.84607   Biso      1.000     C          -0.156375           
         C48       1.0000    0.91830   0.10320   0.87465   Biso      1.000     C          0.009327  
         C49       1.0000    0.86300   0.12620   0.46506   Biso      1.000     C          -0.18493800000000002          
         C50       1.0000    0.64220   0.03881   0.89839   Biso      1.000     C          0.210181  
         C51       1.0000    0.69730   0.08220   0.94186   Biso      1.000     C          0.041503  
         C52       1.0000    0.61340   0.15650   0.96593   Biso      1.000     C          -0.158295           
         C53       1.0000    0.47770   0.18810   0.94595   Biso      1.000     C          -0.092284           
         C54       1.0000    0.42360   0.14460   0.90316   Biso      1.000     C          -0.174058           
         C55       1.0000    0.50530   0.06930   0.87887   Biso      1.000     C          0.017462000000000002          
         C56       1.0000    0.84670   0.05150   0.95774   Biso      1.000     C          -0.264462           
         H1        1.0000    0.34990   0.03670   0.83820   Biso      1.000     H          0.137853  
         H2        1.0000    0.32420   0.19700   0.70360   Biso      1.000     H          0.123101  
         H3        1.0000    0.53460   0.18240   0.49030   Biso      1.000     H          0.127138  
         H4        1.0000    0.69280   0.01890   0.50400   Biso      1.000     H          0.142129  
         H5        1.0000    0.75190   0.93780   0.59890   Biso      1.000     H          0.115199  
         H6        1.0000    0.80820   0.14260   0.41650   Biso      1.000     H          0.129211  
         H7        1.0000    0.12440   0.17600   0.51290   Biso      1.000     H          0.137621  
         H8        1.0000    0.13950   0.97870   0.71810   Biso      1.000     H          0.14297   
         H9        1.0000    0.88080   0.97700   0.97800   Biso      1.000     H          0.113784  
         H10       1.0000    0.86020   0.24210   0.88040   Biso      1.000     H          0.13960699999999998           
         H11       1.0000    0.48650   0.94930   0.85430   Biso      1.000     H          0.12488699999999998           
         H12       1.0000    0.86550   0.07030   0.00440   Biso      1.000     H          0.12644   
         H13       1.0000    0.64870   0.18580   0.99610   Biso      1.000     H          0.138247  
         H14       1.0000    0.33060   0.16650   0.89050   Biso      1.000     H          0.13275499999999998           
         H15       1.0000    0.83450   0.95120   0.70240   Biso      1.000     H          0.364198  
         H16       1.0000    0.97210   0.92790   0.90110   Biso      1.000     H          0.388542  
         H17       1.0000    0.68840   0.94490   0.85160   Biso      1.000     H          0.38898299999999997           
         H18       1.0000    0.06820   0.24510   0.66190   Biso      1.000     H          0.129974  
         H19       1.0000    0.31160   0.05510   0.14840   Biso      1.000     H          0.38898299999999997           
         H20       1.0000    0.19850   0.07390   0.66210   Biso      1.000     H          0.124589  
         H21       1.0000    0.16550   0.04880   0.29760   Biso      1.000     H          0.364198  
         H22       1.0000    0.46540   0.81760   0.50970   Biso      1.000     H          0.127138  
         H23       1.0000    0.51350   0.05070   0.14570   Biso      1.000     H          0.12488699999999998           
         H24       1.0000    0.30720   0.98110   0.49600   Biso      1.000     H          0.142129  
         H25       1.0000    0.24810   0.06220   0.40110   Biso      1.000     H          0.115199  
         H26       1.0000    0.19180   0.85740   0.58350   Biso      1.000     H          0.129211  
         H27       1.0000    0.87560   0.82400   0.48710   Biso      1.000     H          0.137621  
         H28       1.0000    0.80150   0.92610   0.33790   Biso      1.000     H          0.124589  
         H29       1.0000    0.86050   0.02130   0.28190   Biso      1.000     H          0.14297   
         H30       1.0000    0.93180   0.75490   0.33810   Biso      1.000     H          0.129974  
         H31       1.0000    0.13980   0.75790   0.11960   Biso      1.000     H          0.13960699999999998           
         H32       1.0000    0.11920   0.02300   0.02200   Biso      1.000     H          0.113784  
         H33       1.0000    0.13450   0.92970   0.99560   Biso      1.000     H          0.12644   
         H34       1.0000    0.35130   0.81420   0.00390   Biso      1.000     H          0.138247  
         H35       1.0000    0.66940   0.83350   0.10950   Biso      1.000     H          0.13275499999999998           
         H36       1.0000    0.02790   0.07210   0.09890   Biso      1.000     H          0.388542  
         H37       1.0000    0.67580   0.80300   0.29640   Biso      1.000     H          0.123101  
         H38       1.0000    0.65010   0.96330   0.16180   Biso      1.000     H          0.137853  
         N1        1.0000    0.55370   0.14981   0.30678   Biso      1.000     N          0.716666  
         N2        1.0000    0.44630   0.85019   0.69322   Biso      1.000     N          0.716666  
         O1        1.0000    0.44800   0.15411   0.34944   Biso      1.000     O          -0.49555  
         O2        1.0000    0.54160   0.18594   0.22249   Biso      1.000     O          -0.534705           
         O3        1.0000    0.24840   0.37166   0.57998   Biso      1.000     O          -0.797492           
         O4        1.0000    0.66340   0.11430   0.34151   Biso      1.000     O          -0.307015           
         O5        1.0000    0.64450   0.76411   0.92733   Biso      1.000     O          -0.777466           
         O6        1.0000    0.55050   0.64005   0.04347   Biso      1.000     O          -0.6438659999999999           
         O7        1.0000    0.74920   0.67793   0.07087   Biso      1.000     O          -0.6488109999999999           
         O8        1.0000    0.27060   0.03391   0.12254   Biso      1.000     O          -0.46929899999999997          
         O9        1.0000    0.91680   0.59871   0.27495   Biso      1.000     O          -0.7349720000000001           
         O10       1.0000    0.66794   0.92814   0.74664   Biso      1.000     O          -0.70298  
         O11       1.0000    0.55200   0.84589   0.65056   Biso      1.000     O          -0.49555  
         O12       1.0000    0.13150   0.57896   0.20398   Biso      1.000     O          -0.6107819999999999           
         O13       1.0000    0.99132   0.04998   0.14766   Biso      1.000     O          -0.47282799999999997          
         O14       1.0000    0.86415   0.76915   0.66931   Biso      1.000     O          -0.710142           
         O15       1.0000    0.08990   0.74424   0.71438   Biso      1.000     O          -0.583152           
         O16       1.0000    0.04320   0.64149   0.64688   Biso      1.000     O          -0.784885           
         O17       1.0000    0.09930   0.02715   0.29845   Biso      1.000     O          -0.437413           
         O18       1.0000    0.58700   0.61870   0.53479   Biso      1.000     O          -0.711136           
         O19       1.0000    0.33206   0.07186   0.25336   Biso      1.000     O          -0.70298  
         O20       1.0000    0.75160   0.62834   0.42002   Biso      1.000     O          -0.797492           
         O21       1.0000    0.22820   0.31206   0.46990   Biso      1.000     O          -0.568583           
         O22       1.0000    0.77180   0.68794   0.53010   Biso      1.000     O          -0.568583           
         O23       1.0000    0.11870   0.56188   0.35486   Biso      1.000     O          -0.6478119999999999           
         O24       1.0000    0.41300   0.38130   0.46521   Biso      1.000     O          -0.711136           
         O25       1.0000    0.33660   0.88570   0.65849   Biso      1.000     O          -0.307015           
         O26       1.0000    0.95680   0.35851   0.35312   Biso      1.000     O          -0.784885           
         O27       1.0000    0.91010   0.25576   0.28562   Biso      1.000     O          -0.5831529999999999           
         O28       1.0000    0.13585   0.23085   0.33069   Biso      1.000     O          -0.710142           
         O29       1.0000    0.00868   0.95002   0.85234   Biso      1.000     O          -0.47282799999999997          
         O30       1.0000    0.86850   0.42104   0.79602   Biso      1.000     O          -0.6107819999999999           
         O31       1.0000    0.88130   0.43812   0.64514   Biso      1.000     O          -0.647813           
         O32       1.0000    0.08320   0.40129   0.72505   Biso      1.000     O          -0.7349720000000001           
         O33       1.0000    0.72940   0.96609   0.87746   Biso      1.000     O          -0.46929899999999997          
         O34       1.0000    0.25080   0.32207   0.92913   Biso      1.000     O          -0.6488109999999999           
         O35       1.0000    0.44950   0.35995   0.95653   Biso      1.000     O          -0.6438659999999999           
         O36       1.0000    0.35550   0.23589   0.07267   Biso      1.000     O          -0.777466           
         O37       1.0000    0.90070   0.97285   0.70155   Biso      1.000     O          -0.437413           
         O38       1.0000    0.45840   0.81406   0.77751   Biso      1.000     O          -0.534705           
         Pr1       1.0000    0.22190   0.50878   0.62872   Biso      1.000     Pr          2.260202  
         Pr2       1.0000    0.70639   0.74510   0.78822   Biso      1.000     Pr          2.109225  
         Pr3       1.0000    0.77810   0.49122   0.37128   Biso      1.000     Pr          2.260202  
         Pr4       1.0000    0.29361   0.25490   0.21178   Biso      1.000     Pr          2.109224  
         S1        1.0000    0.94729   0.38971   0.73051   Biso      1.000     S          1.254751  
         S2        1.0000    0.37707   0.28281   0.97777   Biso      1.000     S          1.217859  
         S3        1.0000    0.32042   0.32549   0.52070   Biso      1.000     S          1.261234  
         S4        1.0000    0.62293   0.71719   0.02223   Biso      1.000     S          1.217859  
         S5        1.0000    0.05271   0.61029   0.26949   Biso      1.000     S          1.254751  
         S6        1.0000    0.67958   0.67451   0.47930   Biso      1.000     S          1.261234  
         S7        1.0000    0.99253   0.25936   0.34809   Biso      1.000     S          1.270723  
         S8        1.0000    0.00747   0.74064   0.65191   Biso      1.000     S          1.270723 