
##########################################################################
#               Crystallographic Information Format file
#               Produced by PyCifRW module
#
#  This is a CIF file.  CIF has been adopted by the International
#  Union of Crystallography as the standard for data archiving and
#  transmission.
#
#  For information on this file format, follow the CIF links at
#  http://www.iucr.org
##########################################################################

data_image0

_cell_length_a                          9.203
_cell_length_b                          11.5997
_cell_length_c                          17.063
_cell_angle_alpha                       104.601
_cell_angle_beta                        90
_cell_angle_gamma                       113.371
_symmetry_space_group_name_H-M          'P 1'
_symmetry_int_tables_number             1
loop_
  _symmetry_equiv_pos_as_xyz
         'x, y, z' 
loop_
  _atom_site_label
  _atom_site_occupancy
  _atom_site_fract_x
  _atom_site_fract_y
  _atom_site_fract_z
  _atom_site_thermal_displace_type
  _atom_site_B_iso_or_equiv
  _atom_site_type_symbol
  _atom_site_charge
         C1        1.0000    0.69300   0.52320   0.96410   Biso      1.000     C          -0.157238           
         C2        1.0000    0.14481   0.85242   0.67386   Biso      1.000     C          0.029799  
         C3        1.0000    0.93768   0.64776   0.04500   Biso      1.000     C          -0.134282           
         C4        1.0000    0.66690   0.42980   0.00570   Biso      1.000     C          0.091438  
         C5        1.0000    0.90310   0.55080   0.08360   Biso      1.000     C          0.067995  
         C6        1.0000    0.76502   0.79844   0.22250   Biso      1.000     C          -0.131995           
         C7        1.0000    0.81136   0.92292   0.11774   Biso      1.000     C          0.580573  
         C8        1.0000    0.44795   0.92830   0.97682   Biso      1.000     C          0.499502  
         C9        1.0000    0.55300   0.84040   0.17760   Biso      1.000     C          -0.156187           
         C10       1.0000    0.85519   0.14758   0.32614   Biso      1.000     C          0.029799  
         C11       1.0000    0.71893   0.92566   0.73196   Biso      1.000     C          0.490047  
         C12       1.0000    0.10512   0.25004   0.54920   Biso      1.000     C          0.545356  
         C13       1.0000    0.92970   0.26200   0.22490   Biso      1.000     C          0.092996  
         C14       1.0000    0.28107   0.07434   0.26804   Biso      1.000     C          0.49003   
         C15       1.0000    0.68400   0.21860   0.26710   Biso      1.000     C          0.080289  
         C16       1.0000    0.71260   0.15960   0.32240   Biso      1.000     C          -0.154179           
         C17       1.0000    0.51965   0.07170   0.52318   Biso      1.000     C          0.498414  
         C18       1.0000    0.88844   0.07708   0.38226   Biso      1.000     C          0.581125  
         C19       1.0000    0.96658   0.20156   0.27750   Biso      1.000     C          -0.133181           
         C20       1.0000    0.35230   0.44920   0.41640   Biso      1.000     C          0.068383  
         C21       1.0000    0.23710   0.57020   0.49430   Biso      1.000     C          0.091545  
         C22       1.0000    0.28992   0.35224   0.45500   Biso      1.000     C          -0.133739           
         C23       1.0000    0.16980   0.47680   0.53590   Biso      1.000     C          -0.156594           
         C24       1.0000    0.70761   0.85242   0.17386   Biso      1.000     C          0.031071  
         C25       1.0000    0.79327   0.07434   0.76804   Biso      1.000     C          0.49022   
         C26       1.0000    0.85508   0.74996   0.95080   Biso      1.000     C          0.544502  
         C27       1.0000    0.66770   0.73800   0.27510   Biso      1.000     C          0.089947  
         C28       1.0000    0.19333   0.36406   0.51450   Biso      1.000     C          0.035674  
         C29       1.0000    0.89488   0.74996   0.45080   Biso      1.000     C          0.545357  
         C30       1.0000    0.07030   0.73800   0.77510   Biso      1.000     C          0.092996  
         C31       1.0000    0.31600   0.78140   0.73290   Biso      1.000     C          0.08029   
         C32       1.0000    0.30700   0.47680   0.03590   Biso      1.000     C          -0.157238           
         C33       1.0000    0.06232   0.35224   0.95500   Biso      1.000     C          -0.134281           
         C34       1.0000    0.33310   0.57020   0.99430   Biso      1.000     C          0.091438  
         C35       1.0000    0.09690   0.44920   0.91640   Biso      1.000     C          0.067997  
         C36       1.0000    0.23498   0.20156   0.77750   Biso      1.000     C          -0.131995           
         C37       1.0000    0.18864   0.07708   0.88226   Biso      1.000     C          0.580573  
         C38       1.0000    0.55205   0.07170   0.02318   Biso      1.000     C          0.499499  
         C39       1.0000    0.44700   0.15960   0.82240   Biso      1.000     C          -0.156187           
         C40       1.0000    0.17073   0.36406   0.01450   Biso      1.000     C          0.036239  
         C41       1.0000    0.46540   0.78140   0.23290   Biso      1.000     C          0.082066  
         C42       1.0000    0.33230   0.26200   0.72490   Biso      1.000     C          0.089947  
         C43       1.0000    0.53460   0.21860   0.76710   Biso      1.000     C          0.082067  
         C44       1.0000    0.20673   0.92566   0.23196   Biso      1.000     C          0.490195  
         C45       1.0000    0.80667   0.63594   0.48550   Biso      1.000     C          0.03566   
         C46       1.0000    0.28740   0.84040   0.67760   Biso      1.000     C          -0.15418  
         C47       1.0000    0.48035   0.92830   0.47682   Biso      1.000     C          0.498416  
         C48       1.0000    0.14492   0.25004   0.04920   Biso      1.000     C          0.544501  
         C49       1.0000    0.11156   0.92292   0.61774   Biso      1.000     C          0.581124  
         C50       1.0000    0.82927   0.63594   0.98550   Biso      1.000     C          0.03624   
         C51       1.0000    0.64770   0.55080   0.58360   Biso      1.000     C          0.068383  
         C52       1.0000    0.76290   0.42980   0.50570   Biso      1.000     C          0.091544  
         C53       1.0000    0.71008   0.64776   0.54500   Biso      1.000     C          -0.133731           
         C54       1.0000    0.83020   0.52320   0.46410   Biso      1.000     C          -0.156586           
         C55       1.0000    0.29239   0.14758   0.82614   Biso      1.000     C          0.03107   
         C56       1.0000    0.03342   0.79844   0.72250   Biso      1.000     C          -0.133181           
         Cu1       1.0000    0.40943   0.67496   0.36933   Biso      1.000     Cu          0.489855  
         Cu2       1.0000    0.26553   0.67496   0.86933   Biso      1.000     Cu          0.490207  
         Cu3       1.0000    0.59057   0.32504   0.63067   Biso      1.000     Cu          0.489854  
         Cu4       1.0000    0.73447   0.32504   0.13067   Biso      1.000     Cu          0.49021   
         Eu1       1.0000    0.82791   0.02615   0.57317   Biso      1.000     Eu          1.326847  
         Eu2       1.0000    0.80176   0.97385   0.92683   Biso      1.000     Eu          1.326095  
         Eu3       1.0000    0.17209   0.97385   0.42683   Biso      1.000     Eu          1.326851  
         Eu4       1.0000    0.19824   0.02615   0.07317   Biso      1.000     Eu          1.326099  
         H1        1.0000    0.96580   0.27920   0.94080   Biso      1.000     H          0.141317  
         H2        1.0000    0.86780   0.80240   0.22010   Biso      1.000     H          0.137062  
         H3        1.0000    0.50840   0.87140   0.14330   Biso      1.000     H          0.138153  
         H4        1.0000    0.36190   0.77540   0.23600   Biso      1.000     H          0.095903  
         H5        1.0000    0.70660   0.69960   0.30680   Biso      1.000     H          0.094022  
         H6        1.0000    0.10910   0.49040   0.57790   Biso      1.000     H          0.129263  
         H7        1.0000    0.31340   0.27920   0.44080   Biso      1.000     H          0.141239  
         H8        1.0000    0.41760   0.43940   0.37600   Biso      1.000     H          0.093195  
         H9        1.0000    0.38130   0.49040   0.07790   Biso      1.000     H          0.129362  
         H10       1.0000    0.06540   0.19760   0.27990   Biso      1.000     H          0.13728   
         H11       1.0000    0.63700   0.12860   0.35670   Biso      1.000     H          0.13741   
         H12       1.0000    0.58650   0.22460   0.26400   Biso      1.000     H          0.096802  
         H13       1.0000    0.00700   0.30040   0.19320   Biso      1.000     H          0.093128  
         H14       1.0000    0.22060   0.64660   0.50950   Biso      1.000     H          0.103394  
         H15       1.0000    0.57400   0.35340   0.99050   Biso      1.000     H          0.104089  
         H16       1.0000    0.97820   0.56060   0.12400   Biso      1.000     H          0.093896  
         H17       1.0000    0.61870   0.50960   0.92210   Biso      1.000     H          0.129362  
         H18       1.0000    0.42600   0.64660   0.00950   Biso      1.000     H          0.104089  
         H19       1.0000    0.02180   0.43940   0.87600   Biso      1.000     H          0.093896  
         H20       1.0000    0.13220   0.19760   0.77990   Biso      1.000     H          0.137062  
         H21       1.0000    0.49160   0.12860   0.85670   Biso      1.000     H          0.138153  
         H22       1.0000    0.63810   0.22460   0.76400   Biso      1.000     H          0.095903  
         H23       1.0000    0.03420   0.72080   0.05920   Biso      1.000     H          0.141316  
         H24       1.0000    0.89090   0.50960   0.42210   Biso      1.000     H          0.129262  
         H25       1.0000    0.29340   0.30040   0.69320   Biso      1.000     H          0.094023  
         H26       1.0000    0.77940   0.35340   0.49050   Biso      1.000     H          0.103394  
         H27       1.0000    0.58240   0.56060   0.62400   Biso      1.000     H          0.093195  
         H28       1.0000    0.93460   0.80240   0.72010   Biso      1.000     H          0.13728   
         H29       1.0000    0.36300   0.87140   0.64330   Biso      1.000     H          0.13741   
         H30       1.0000    0.41350   0.77540   0.73600   Biso      1.000     H          0.096802  
         H31       1.0000    0.99300   0.69960   0.80680   Biso      1.000     H          0.093128  
         H32       1.0000    0.68660   0.72080   0.55920   Biso      1.000     H          0.141239  
         N1        1.0000    0.23160   0.55560   0.93380   Biso      1.000     N          -0.203741           
         N2        1.0000    0.47806   0.26772   0.71760   Biso      1.000     N          -0.212243           
         N3        1.0000    0.67600   0.44440   0.56620   Biso      1.000     N          -0.203229           
         N4        1.0000    0.21034   0.73228   0.78240   Biso      1.000     N          -0.212833           
         N5        1.0000    0.52194   0.73228   0.28240   Biso      1.000     N          -0.212243           
         N6        1.0000    0.32400   0.55560   0.43380   Biso      1.000     N          -0.203229           
         N7        1.0000    0.76840   0.44440   0.06620   Biso      1.000     N          -0.203741           
         N8        1.0000    0.78966   0.26772   0.21760   Biso      1.000     N          -0.212834           
         O1        1.0000    0.04061   0.03062   0.86318   Biso      1.000     O          -0.55894  
         O2        1.0000    0.68907   0.12194   0.00409   Biso      1.000     O          -0.516184           
         O3        1.0000    0.02053   0.14646   0.02466   Biso      1.000     O          -0.577045           
         O4        1.0000    0.25868   0.07336   0.94378   Biso      1.000     O          -0.564559           
         O5        1.0000    0.20669   0.88438   0.15675   Biso      1.000     O          -0.504866           
         O6        1.0000    0.48973   0.12706   0.07714   Biso      1.000     O          -0.513106           
         O7        1.0000    0.74607   0.73934   0.90222   Biso      1.000     O          -0.557928           
         O8        1.0000    0.29764   0.14128   0.21852   Biso      1.000     O          -0.475449           
         O9        1.0000    0.00999   0.96938   0.63682   Biso      1.000     O          -0.559268           
         O10       1.0000    0.56713   0.87806   0.49591   Biso      1.000     O          -0.515992           
         O11       1.0000    0.87407   0.85354   0.47534   Biso      1.000     O          -0.577153           
         O12       1.0000    0.18532   0.92664   0.55622   Biso      1.000     O          -0.564603           
         O13       1.0000    0.32231   0.11562   0.34325   Biso      1.000     O          -0.504903           
         O14       1.0000    0.36267   0.87294   0.42286   Biso      1.000     O          -0.512346           
         O15       1.0000    0.99327   0.73934   0.40222   Biso      1.000     O          -0.558599           
         O16       1.0000    0.84364   0.14128   0.71852   Biso      1.000     O          -0.475291           
         O17       1.0000    0.31093   0.87806   0.99591   Biso      1.000     O          -0.516184           
         O18       1.0000    0.97947   0.85354   0.97534   Biso      1.000     O          -0.577045           
         O19       1.0000    0.74132   0.92664   0.05622   Biso      1.000     O          -0.564562           
         O20       1.0000    0.79331   0.11562   0.84325   Biso      1.000     O          -0.504876           
         O21       1.0000    0.51027   0.87294   0.92286   Biso      1.000     O          -0.513107           
         O22       1.0000    0.00673   0.26066   0.59778   Biso      1.000     O          -0.558597           
         O23       1.0000    0.70236   0.85872   0.78148   Biso      1.000     O          -0.475452           
         O24       1.0000    0.99001   0.03062   0.36318   Biso      1.000     O          -0.559269           
         O25       1.0000    0.43287   0.12194   0.50409   Biso      1.000     O          -0.515992           
         O26       1.0000    0.12593   0.14646   0.52466   Biso      1.000     O          -0.577151           
         O27       1.0000    0.81468   0.07336   0.44378   Biso      1.000     O          -0.564607           
         O28       1.0000    0.67769   0.88438   0.65675   Biso      1.000     O          -0.504912           
         O29       1.0000    0.63733   0.12706   0.57714   Biso      1.000     O          -0.512347           
         O30       1.0000    0.15636   0.85872   0.28148   Biso      1.000     O          -0.475286           
         O31       1.0000    0.95939   0.96938   0.13682   Biso      1.000     O          -0.558939           
         O32       1.0000    0.25393   0.26066   0.09778   Biso      1.000     O          -0.557928 