
##########################################################################
#               Crystallographic Information Format file
#               Produced by PyCifRW module
#
#  This is a CIF file.  CIF has been adopted by the International
#  Union of Crystallography as the standard for data archiving and
#  transmission.
#
#  For information on this file format, follow the CIF links at
#  http://www.iucr.org
##########################################################################

data_image0

_cell_length_a                          8.978
_cell_length_b                          8.978
_cell_length_c                          11.934
_cell_angle_alpha                       90
_cell_angle_beta                        90
_cell_angle_gamma                       90
_symmetry_space_group_name_H-M          'P 1'
_symmetry_int_tables_number             1
loop_
  _symmetry_equiv_pos_as_xyz
         'x, y, z' 
loop_
  _atom_site_label
  _atom_site_occupancy
  _atom_site_fract_x
  _atom_site_fract_y
  _atom_site_fract_z
  _atom_site_thermal_displace_type
  _atom_site_B_iso_or_equiv
  _atom_site_type_symbol
  _atom_site_charge
         C1        1.0000    0.26100   0.12200   0.12700   Biso      1.000     C          -0.158274           
         C2        1.0000    0.73400   0.48600   0.57600   Biso      1.000     C          -0.20108399999999998          
         C3        1.0000    0.87800   0.73900   0.37300   Biso      1.000     C          -0.158274           
         C4        1.0000    0.26600   0.51400   0.07600   Biso      1.000     C          -0.201078           
         C5        1.0000    0.12200   0.26100   0.87300   Biso      1.000     C          -0.158269           
         C6        1.0000    0.01400   0.23400   0.82600   Biso      1.000     C          -0.20096  
         C7        1.0000    0.76100   0.37800   0.62300   Biso      1.000     C          -0.158158           
         C8        1.0000    0.23900   0.62200   0.12300   Biso      1.000     C          -0.158153           
         C9        1.0000    0.98600   0.76600   0.32600   Biso      1.000     C          -0.200961           
         C10       1.0000    0.62200   0.23900   0.87700   Biso      1.000     C          -0.158273           
         C11       1.0000    0.23400   0.01400   0.17400   Biso      1.000     C          -0.200962           
         C12       1.0000    0.37800   0.76100   0.37700   Biso      1.000     C          -0.15826500000000002          
         C13       1.0000    0.48600   0.73400   0.42400   Biso      1.000     C          -0.200967           
         C14       1.0000    0.73900   0.87800   0.62700   Biso      1.000     C          -0.158279           
         C15       1.0000    0.51400   0.26600   0.92400   Biso      1.000     C          -0.200968           
         C16       1.0000    0.76600   0.98600   0.67400   Biso      1.000     C          -0.200963           
         Cd1       1.0000    0.20370   0.79630   0.25000   Biso      1.000     Cd          0.7184619999999999  
         Cd2       1.0000    0.29630   0.29630   0.00000   Biso      1.000     Cd          0.718488  
         Cd3       1.0000    0.70370   0.70370   0.50000   Biso      1.000     Cd          0.718485  
         Cd4       1.0000    0.79630   0.20370   0.75000   Biso      1.000     Cd          0.7184520000000001 