
##########################################################################
#               Crystallographic Information Format file
#               Produced by PyCifRW module
#
#  This is a CIF file.  CIF has been adopted by the International
#  Union of Crystallography as the standard for data archiving and
#  transmission.
#
#  For information on this file format, follow the CIF links at
#  http://www.iucr.org
##########################################################################

data_image0

_cell_length_a                          12.238
_cell_length_b                          12.238
_cell_length_c                          12.398
_cell_angle_alpha                       90
_cell_angle_beta                        90
_cell_angle_gamma                       90
_symmetry_space_group_name_H-M          'P 1'
_symmetry_int_tables_number             1
loop_
  _symmetry_equiv_pos_as_xyz
         'x, y, z' 
loop_
  _atom_site_label
  _atom_site_occupancy
  _atom_site_fract_x
  _atom_site_fract_y
  _atom_site_fract_z
  _atom_site_thermal_displace_type
  _atom_site_B_iso_or_equiv
  _atom_site_type_symbol
  _atom_site_charge
         C1        1.0000    0.76374   0.86616   0.32105   Biso      1.000     C          -0.009454           
         C2        1.0000    0.23626   0.13384   0.32105   Biso      1.000     C          -0.009454           
         C3        1.0000    0.86616   0.23626   0.67895   Biso      1.000     C          -0.009454           
         C4        1.0000    0.13384   0.76374   0.67895   Biso      1.000     C          -0.009454           
         C5        1.0000    0.72152   0.85925   0.21790   Biso      1.000     C          -0.103602           
         C6        1.0000    0.27848   0.14075   0.21790   Biso      1.000     C          -0.103602           
         C7        1.0000    0.85925   0.27848   0.78210   Biso      1.000     C          -0.103602           
         C8        1.0000    0.14075   0.72152   0.78210   Biso      1.000     C          -0.103602           
         C9        1.0000    0.78838   0.82593   0.13299   Biso      1.000     C          -0.049154           
         C10       1.0000    0.21162   0.17407   0.13299   Biso      1.000     C          -0.049153           
         C11       1.0000    0.82593   0.21162   0.86701   Biso      1.000     C          -0.049154           
         C12       1.0000    0.17407   0.78838   0.86701   Biso      1.000     C          -0.049153           
         C13       1.0000    0.89718   0.79770   0.15218   Biso      1.000     C          -0.122368           
         C14       1.0000    0.10282   0.20230   0.15218   Biso      1.000     C          -0.122381           
         C15       1.0000    0.79770   0.10282   0.84782   Biso      1.000     C          -0.122369           
         C16       1.0000    0.20230   0.89718   0.84782   Biso      1.000     C          -0.122382           
         C17       1.0000    0.93704   0.80300   0.25817   Biso      1.000     C          0.104881  
         C18       1.0000    0.06296   0.19700   0.25817   Biso      1.000     C          0.104883  
         C19       1.0000    0.80300   0.06296   0.74183   Biso      1.000     C          0.104882  
         C20       1.0000    0.19700   0.93704   0.74183   Biso      1.000     C          0.104883  
         C21       1.0000    0.04666   0.76271   0.28428   Biso      1.000     C          0.086498  
         C22       1.0000    0.95334   0.23729   0.28428   Biso      1.000     C          0.086497  
         C23       1.0000    0.76271   0.95334   0.71572   Biso      1.000     C          0.086497  
         C24       1.0000    0.23729   0.04666   0.71572   Biso      1.000     C          0.086497  
         C25       1.0000    0.07388   0.65536   0.26043   Biso      1.000     C          -0.128856           
         C26       1.0000    0.92612   0.34464   0.26043   Biso      1.000     C          -0.128855           
         C27       1.0000    0.65536   0.92612   0.73957   Biso      1.000     C          -0.128856           
         C28       1.0000    0.34464   0.07388   0.73957   Biso      1.000     C          -0.128855           
         C29       1.0000    0.17996   0.61805   0.27963   Biso      1.000     C          -0.046147           
         C30       1.0000    0.82004   0.38195   0.27963   Biso      1.000     C          -0.046148           
         C31       1.0000    0.61805   0.82004   0.72037   Biso      1.000     C          -0.046149           
         C32       1.0000    0.38195   0.17996   0.72037   Biso      1.000     C          -0.046151           
         C33       1.0000    0.25680   0.68902   0.32503   Biso      1.000     C          -0.112122           
         C34       1.0000    0.74320   0.31098   0.32503   Biso      1.000     C          -0.112118           
         C35       1.0000    0.68902   0.74320   0.67497   Biso      1.000     C          -0.112113           
         C36       1.0000    0.31098   0.25680   0.67497   Biso      1.000     C          -0.11211  
         C37       1.0000    0.22709   0.79615   0.34873   Biso      1.000     C          -0.021344           
         C38       1.0000    0.77291   0.20385   0.34873   Biso      1.000     C          -0.021345           
         C39       1.0000    0.79615   0.77291   0.65127   Biso      1.000     C          -0.021346           
         C40       1.0000    0.20385   0.22709   0.65127   Biso      1.000     C          -0.021348           
         H1        1.0000    0.71813   0.89559   0.39019   Biso      1.000     H          0.134067  
         H2        1.0000    0.28187   0.10441   0.39019   Biso      1.000     H          0.134068  
         H3        1.0000    0.89559   0.28187   0.60981   Biso      1.000     H          0.134067  
         H4        1.0000    0.10441   0.71813   0.60981   Biso      1.000     H          0.134068  
         H5        1.0000    0.63574   0.88134   0.20673   Biso      1.000     H          0.11051   
         H6        1.0000    0.36426   0.11866   0.20673   Biso      1.000     H          0.11051   
         H7        1.0000    0.88134   0.36426   0.79327   Biso      1.000     H          0.11051   
         H8        1.0000    0.11866   0.63574   0.79327   Biso      1.000     H          0.11051   
         H9        1.0000    0.95192   0.77179   0.08685   Biso      1.000     H          0.153627  
         H10       1.0000    0.04808   0.22821   0.08685   Biso      1.000     H          0.153628  
         H11       1.0000    0.77179   0.04808   0.91315   Biso      1.000     H          0.153628  
         H12       1.0000    0.22821   0.95192   0.91315   Biso      1.000     H          0.153628  
         H13       1.0000    0.01030   0.60233   0.22647   Biso      1.000     H          0.133063  
         H14       1.0000    0.98970   0.39767   0.22647   Biso      1.000     H          0.133056  
         H15       1.0000    0.60233   0.98970   0.77353   Biso      1.000     H          0.133064  
         H16       1.0000    0.39767   0.01030   0.77353   Biso      1.000     H          0.133056  
         H17       1.0000    0.34103   0.66335   0.34190   Biso      1.000     H          0.149858  
         H18       1.0000    0.65897   0.33665   0.34190   Biso      1.000     H          0.149844  
         H19       1.0000    0.66335   0.65897   0.65810   Biso      1.000     H          0.149827  
         H20       1.0000    0.33665   0.34103   0.65810   Biso      1.000     H          0.149813  
         H21       1.0000    0.28194   0.85608   0.38425   Biso      1.000     H          0.136599  
         H22       1.0000    0.71806   0.14392   0.38425   Biso      1.000     H          0.136599  
         H23       1.0000    0.85608   0.71806   0.61575   Biso      1.000     H          0.136599  
         H24       1.0000    0.14392   0.28194   0.61575   Biso      1.000     H          0.1366    
         N1        1.0000    0.86981   0.83620   0.34069   Biso      1.000     N          0.317143  
         N2        1.0000    0.13019   0.16380   0.34069   Biso      1.000     N          0.317143  
         N3        1.0000    0.83620   0.13019   0.65931   Biso      1.000     N          0.317143  
         N4        1.0000    0.16380   0.86981   0.65931   Biso      1.000     N          0.317143  
         N5        1.0000    0.12341   0.83319   0.32708   Biso      1.000     N          0.305345  
         N6        1.0000    0.87659   0.16681   0.32708   Biso      1.000     N          0.305346  
         N7        1.0000    0.83319   0.87659   0.67292   Biso      1.000     N          0.305345  
         N8        1.0000    0.16681   0.12341   0.67292   Biso      1.000     N          0.305346  
         O1        1.0000    0.90719   0.83901   0.44198   Biso      1.000     O          -0.585777           
         O2        1.0000    0.09281   0.16099   0.44198   Biso      1.000     O          -0.585777           
         O3        1.0000    0.83901   0.09281   0.55802   Biso      1.000     O          -0.585777           
         O4        1.0000    0.16099   0.90719   0.55802   Biso      1.000     O          -0.585777           
         O5        1.0000    0.09777   0.93758   0.34358   Biso      1.000     O          -0.569925           
         O6        1.0000    0.90223   0.06242   0.34358   Biso      1.000     O          -0.569933           
         O7        1.0000    0.93758   0.90223   0.65642   Biso      1.000     O          -0.569925           
         O8        1.0000    0.06242   0.09777   0.65642   Biso      1.000     O          -0.569933           
         O9        1.0000    0.66556   0.91556   0.99095   Biso      1.000     O          -0.703861           
         O10       1.0000    0.33444   0.08444   0.99095   Biso      1.000     O          -0.703861           
         O11       1.0000    0.91556   0.33444   0.00905   Biso      1.000     O          -0.70386  
         O12       1.0000    0.08444   0.66556   0.00905   Biso      1.000     O          -0.703861           
         O13       1.0000    0.66370   0.71595   0.00526   Biso      1.000     O          -0.772754           
         O14       1.0000    0.33630   0.28405   0.00526   Biso      1.000     O          -0.772754           
         O15       1.0000    0.71595   0.33630   0.99474   Biso      1.000     O          -0.772754           
         O16       1.0000    0.28405   0.66370   0.99474   Biso      1.000     O          -0.772754           
         O17       1.0000    0.82510   0.80757   0.92674   Biso      1.000     O          -0.560676           
         O18       1.0000    0.17490   0.19243   0.92674   Biso      1.000     O          -0.560676           
         O19       1.0000    0.80757   0.17490   0.07326   Biso      1.000     O          -0.560676           
         O20       1.0000    0.19243   0.82510   0.07326   Biso      1.000     O          -0.560676           
         O21       1.0000    0.14635   0.45786   0.14593   Biso      1.000     O          -0.772177           
         O22       1.0000    0.85365   0.54214   0.14593   Biso      1.000     O          -0.772177           
         O23       1.0000    0.45786   0.85365   0.85407   Biso      1.000     O          -0.772178           
         O24       1.0000    0.54214   0.14635   0.85407   Biso      1.000     O          -0.772178           
         O25       1.0000    0.18186   0.41530   0.33829   Biso      1.000     O          -0.57367  
         O26       1.0000    0.81814   0.58470   0.33829   Biso      1.000     O          -0.57367  
         O27       1.0000    0.41530   0.81814   0.66171   Biso      1.000     O          -0.573669           
         O28       1.0000    0.58470   0.18186   0.66171   Biso      1.000     O          -0.57367  
         O29       1.0000    0.33065   0.48357   0.21969   Biso      1.000     O          -0.612511           
         O30       1.0000    0.66935   0.51643   0.21969   Biso      1.000     O          -0.612515           
         O31       1.0000    0.48357   0.66935   0.78031   Biso      1.000     O          -0.612511           
         O32       1.0000    0.51643   0.33065   0.78031   Biso      1.000     O          -0.612515           
         Na1       1.0000    0.50000   0.00000   0.97763   Biso      1.000     Na          0.919697  
         Na2       1.0000    0.00000   0.50000   0.02237   Biso      1.000     Na          0.919697  
         Na3       1.0000    0.70965   0.52937   0.00748   Biso      1.000     Na          0.982164  
         Na4       1.0000    0.29035   0.47063   0.00748   Biso      1.000     Na          0.982164  
         Na5       1.0000    0.52937   0.29035   0.99252   Biso      1.000     Na          0.982178  
         Na6       1.0000    0.47063   0.70965   0.99252   Biso      1.000     Na          0.982178  
         S1        1.0000    0.73302   0.81538   0.00084   Biso      1.000     S          1.208709  
         S2        1.0000    0.26698   0.18462   0.00084   Biso      1.000     S          1.208709  
         S3        1.0000    0.81538   0.26698   0.99916   Biso      1.000     S          1.208709  
         S4        1.0000    0.18462   0.73302   0.99916   Biso      1.000     S          1.208709  
         S5        1.0000    0.21482   0.48075   0.24477   Biso      1.000     S          1.167479  
         S6        1.0000    0.78518   0.51925   0.24477   Biso      1.000     S          1.16748   
         S7        1.0000    0.48075   0.78518   0.75523   Biso      1.000     S          1.167479  
         S8        1.0000    0.51925   0.21482   0.75523   Biso      1.000     S          1.16748   
         Sm1       1.0000    0.00000   0.00000   0.50000   Biso      1.000     Sm          1.962614  
         Cl1       1.0000    0.50000   0.50000   0.00000   Biso      1.000     Cl          -0.784092 