
##########################################################################
#               Crystallographic Information Format file
#               Produced by PyCifRW module
#
#  This is a CIF file.  CIF has been adopted by the International
#  Union of Crystallography as the standard for data archiving and
#  transmission.
#
#  For information on this file format, follow the CIF links at
#  http://www.iucr.org
##########################################################################

data_image0

_cell_length_a                          10.0452
_cell_length_b                          14.1601
_cell_length_c                          10.2294
_cell_angle_alpha                       92.258
_cell_angle_beta                        90
_cell_angle_gamma                       90
_symmetry_space_group_name_H-M          'P 1'
_symmetry_int_tables_number             1
loop_
  _symmetry_equiv_pos_as_xyz
         'x, y, z' 
loop_
  _atom_site_label
  _atom_site_occupancy
  _atom_site_fract_x
  _atom_site_fract_y
  _atom_site_fract_z
  _atom_site_thermal_displace_type
  _atom_site_B_iso_or_equiv
  _atom_site_type_symbol
  _atom_site_charge
         C1        1.0000    0.78130   0.63240   0.24230   Biso      1.000     C          0.6537470000000001  
         C2        1.0000    0.49150   0.20080   0.95080   Biso      1.000     C          0.569281  
         C3        1.0000    0.53000   0.97360   0.06670   Biso      1.000     C          0.623884  
         C4        1.0000    0.25800   0.94300   0.12440   Biso      1.000     C          0.662725  
         C5        1.0000    0.22570   0.21050   0.17750   Biso      1.000     C          0.581866  
         C6        1.0000    0.41000   0.11070   0.96660   Biso      1.000     C          0.02445   
         C7        1.0000    0.44560   0.06070   0.09060   Biso      1.000     C          -0.170969           
         C8        1.0000    0.72500   0.46250   0.26810   Biso      1.000     C          0.03865   
         C9        1.0000    0.30990   0.04210   0.15870   Biso      1.000     C          -0.17844200000000002          
         C10       1.0000    0.00170   0.36920   0.91910   Biso      1.000     C          0.579212  
         C11       1.0000    0.94270   0.58160   0.77840   Biso      1.000     C          0.6476930000000001  
         C12       1.0000    0.21870   0.63240   0.74230   Biso      1.000     C          0.654058  
         C13       1.0000    0.28440   0.37200   0.68340   Biso      1.000     C          0.57193   
         C14       1.0000    0.08080   0.45970   0.89710   Biso      1.000     C          0.024527  
         C15       1.0000    0.04410   0.50190   0.76490   Biso      1.000     C          -0.171074           
         C16       1.0000    0.21840   0.11650   0.09750   Biso      1.000     C          0.038228  
         C17       1.0000    0.82350   0.53160   0.20620   Biso      1.000     C          -0.182203           
         C18       1.0000    0.95590   0.50190   0.26490   Biso      1.000     C          -0.170997           
         C19       1.0000    0.91920   0.45970   0.39710   Biso      1.000     C          0.024418000000000002          
         C20       1.0000    0.50850   0.20080   0.45080   Biso      1.000     C          0.5693159999999999  
         C21       1.0000    0.47000   0.97360   0.56670   Biso      1.000     C          0.623558  
         C22       1.0000    0.74200   0.94300   0.62440   Biso      1.000     C          0.6624909999999999  
         C23       1.0000    0.17650   0.53160   0.70620   Biso      1.000     C          -0.182221           
         C24       1.0000    0.59000   0.11070   0.46660   Biso      1.000     C          0.02435   
         C25       1.0000    0.77430   0.21050   0.67750   Biso      1.000     C          0.581746  
         C26       1.0000    0.69010   0.04210   0.65870   Biso      1.000     C          -0.178226           
         C27       1.0000    0.78160   0.11650   0.59750   Biso      1.000     C          0.03827   
         C28       1.0000    0.99830   0.36920   0.41910   Biso      1.000     C          0.57934   
         C29       1.0000    0.05730   0.58160   0.27840   Biso      1.000     C          0.647465  
         C30       1.0000    0.71560   0.37200   0.18340   Biso      1.000     C          0.5719850000000001  
         C31       1.0000    0.55440   0.06070   0.59060   Biso      1.000     C          -0.171076           
         C32       1.0000    0.27500   0.46250   0.76810   Biso      1.000     C          0.038734  
         Cl1       1.0000    0.10757   0.96782   0.53000   Biso      1.000     Cl          -0.49848000000000003          
         Cl2       1.0000    0.62662   0.69091   0.65147   Biso      1.000     Cl          -0.5934159999999999           
         Cl3       1.0000    0.89243   0.96782   0.03000   Biso      1.000     Cl          -0.503913           
         Cl4       1.0000    0.37338   0.69091   0.15147   Biso      1.000     Cl          -0.595056           
         Cu1       1.0000    0.24883   0.28535   0.92562   Biso      1.000     Cu          0.92515   
         Cu2       1.0000    0.76772   0.78851   0.43235   Biso      1.000     Cu          0.9367709999999999  
         Cu3       1.0000    0.74266   0.28744   0.93793   Biso      1.000     Cu          0.965781  
         Cu4       1.0000    0.73614   0.87617   0.94109   Biso      1.000     Cu          0.899835  
         Cu5       1.0000    0.71889   0.66436   0.90769   Biso      1.000     Cu          0.9292879999999999  
         Cu6       1.0000    0.59336   0.78172   0.15605   Biso      1.000     Cu          0.9930120000000001  
         Cu7       1.0000    0.12341   0.77034   0.20064   Biso      1.000     Cu          0.979767  
         Cu8       1.0000    0.25734   0.28744   0.43793   Biso      1.000     Cu          0.9654809999999999  
         Cu9       1.0000    0.75117   0.28535   0.42562   Biso      1.000     Cu          0.925484  
         Cu10      1.0000    0.28111   0.66436   0.40769   Biso      1.000     Cu          0.929032  
         Cu11      1.0000    0.40664   0.78172   0.65605   Biso      1.000     Cu          0.991899  
         Cu12      1.0000    0.87659   0.77034   0.70064   Biso      1.000     Cu          0.9800549999999999  
         Cu13      1.0000    0.23228   0.78851   0.93235   Biso      1.000     Cu          0.937158  
         Cu14      1.0000    0.26386   0.87617   0.44109   Biso      1.000     Cu          0.8986040000000001  
         H1        1.0000    0.17500   0.52110   0.60890   Biso      1.000     H          0.12805   
         H2        1.0000    0.60500   0.87100   0.36900   Biso      1.000     H          0.377416  
         H3        1.0000    0.36480   0.49260   0.77720   Biso      1.000     H          0.121574  
         H4        1.0000    0.00530   0.45040   0.70710   Biso      1.000     H          0.131483  
         H5        1.0000    0.07100   0.76800   0.43200   Biso      1.000     H          0.389252  
         H6        1.0000    0.12460   0.09310   0.09310   Biso      1.000     H          0.126197  
         H7        1.0000    0.97700   0.83900   0.49500   Biso      1.000     H          0.344179  
         H8        1.0000    0.05940   0.50710   0.96910   Biso      1.000     H          0.111199  
         H9        1.0000    0.57040   0.06670   0.39020   Biso      1.000     H          0.110851  
         H10       1.0000    0.50280   0.10610   0.64840   Biso      1.000     H          0.13443   
         H11       1.0000    0.68320   0.05320   0.75560   Biso      1.000     H          0.138213  
         H12       1.0000    0.87540   0.09310   0.59310   Biso      1.000     H          0.125975  
         H13       1.0000    0.99470   0.45040   0.20710   Biso      1.000     H          0.13155   
         H14       1.0000    0.82500   0.52110   0.10890   Biso      1.000     H          0.128125  
         H15       1.0000    0.94060   0.50710   0.46910   Biso      1.000     H          0.11115   
         H16       1.0000    0.63520   0.49260   0.27720   Biso      1.000     H          0.12145399999999999           
         H17       1.0000    0.39500   0.87100   0.86900   Biso      1.000     H          0.377299  
         H18       1.0000    0.92900   0.76800   0.93200   Biso      1.000     H          0.389119  
         H19       1.0000    0.02300   0.83900   0.99500   Biso      1.000     H          0.34444400000000003           
         H20       1.0000    0.42960   0.06670   0.89020   Biso      1.000     H          0.11098399999999999           
         H21       1.0000    0.49720   0.10610   0.14840   Biso      1.000     H          0.134236  
         H22       1.0000    0.31680   0.05320   0.25560   Biso      1.000     H          0.138008  
         O1        1.0000    0.94030   0.29320   0.43980   Biso      1.000     O          -0.514225           
         O2        1.0000    0.72120   0.67480   0.15330   Biso      1.000     O          -0.600209           
         O3        1.0000    0.75640   0.29560   0.22790   Biso      1.000     O          -0.541978           
         O4        1.0000    0.80290   0.66330   0.35590   Biso      1.000     O          -0.489387           
         O5        1.0000    0.04590   0.64470   0.19600   Biso      1.000     O          -0.5145069999999999           
         O6        1.0000    0.14570   0.57450   0.36380   Biso      1.000     O          -0.524237           
         O7        1.0000    0.12160   0.38010   0.41830   Biso      1.000     O          -0.5122680000000001           
         O8        1.0000    0.67380   0.38050   0.06870   Biso      1.000     O          -0.49695600000000006          
         O9        1.0000    0.93200   0.78390   0.52380   Biso      1.000     O          -0.834257           
         O10       1.0000    0.40460   0.96690   0.46180   Biso      1.000     O          -0.48212299999999997          
         O11       1.0000    0.73070   0.12890   0.46850   Biso      1.000     O          -0.24023699999999998          
         O12       1.0000    0.74210   0.28460   0.62280   Biso      1.000     O          -0.527096           
         O13       1.0000    0.79950   0.20360   0.79750   Biso      1.000     O          -0.511179           
         O14       1.0000    0.78900   0.89610   0.71540   Biso      1.000     O          -0.5691   
         O15       1.0000    0.73180   0.91600   0.50700   Biso      1.000     O          -0.5293869999999999           
         O16       1.0000    0.47070   0.91500   0.65660   Biso      1.000     O          -0.536791           
         O17       1.0000    0.38600   0.19130   0.47260   Biso      1.000     O          -0.49578999999999995          
         O18       1.0000    0.77790   0.44410   0.39480   Biso      1.000     O          -0.24075  
         O19       1.0000    0.56100   0.27490   0.41250   Biso      1.000     O          -0.521659           
         O20       1.0000    0.15440   0.76880   0.38680   Biso      1.000     O          -0.837364           
         O21       1.0000    0.39120   0.76870   0.46760   Biso      1.000     O          -0.674266           
         O22       1.0000    0.19710   0.66330   0.85590   Biso      1.000     O          -0.489433           
         O23       1.0000    0.43900   0.27490   0.91250   Biso      1.000     O          -0.521564           
         O24       1.0000    0.60620   0.80600   0.33920   Biso      1.000     O          -0.76078  
         O25       1.0000    0.22210   0.44410   0.89480   Biso      1.000     O          -0.24057800000000001          
         O26       1.0000    0.24360   0.29560   0.72790   Biso      1.000     O          -0.541938           
         O27       1.0000    0.32620   0.38050   0.56870   Biso      1.000     O          -0.497061           
         O28       1.0000    0.27880   0.67480   0.65330   Biso      1.000     O          -0.601774           
         O29       1.0000    0.95410   0.64470   0.69600   Biso      1.000     O          -0.515173           
         O30       1.0000    0.85430   0.57450   0.86380   Biso      1.000     O          -0.52503  
         O31       1.0000    0.87840   0.38010   0.91830   Biso      1.000     O          -0.5120819999999999           
         O32       1.0000    0.05970   0.29320   0.93980   Biso      1.000     O          -0.5140239999999999           
         O33       1.0000    0.06800   0.78390   0.02380   Biso      1.000     O          -0.833802           
         O34       1.0000    0.84560   0.76880   0.88680   Biso      1.000     O          -0.8401200000000001           
         O35       1.0000    0.26930   0.12890   0.96850   Biso      1.000     O          -0.240173           
         O36       1.0000    0.25790   0.28460   0.12280   Biso      1.000     O          -0.526983           
         O37       1.0000    0.20050   0.20360   0.29750   Biso      1.000     O          -0.511408           
         O38       1.0000    0.21100   0.89610   0.21540   Biso      1.000     O          -0.5689850000000001           
         O39       1.0000    0.26820   0.91600   0.00700   Biso      1.000     O          -0.52941  
         O40       1.0000    0.52930   0.91500   0.15660   Biso      1.000     O          -0.536354           
         O41       1.0000    0.59540   0.96690   0.96180   Biso      1.000     O          -0.48473299999999997          
         O42       1.0000    0.61400   0.19130   0.97260   Biso      1.000     O          -0.49529399999999996          
         O43       1.0000    0.39380   0.80600   0.83920   Biso      1.000     O          -0.760998           
         O44       1.0000    0.60880   0.76870   0.96760   Biso      1.000     O          -0.6768930000000001 