
##########################################################################
#               Crystallographic Information Format file
#               Produced by PyCifRW module
#
#  This is a CIF file.  CIF has been adopted by the International
#  Union of Crystallography as the standard for data archiving and
#  transmission.
#
#  For information on this file format, follow the CIF links at
#  http://www.iucr.org
##########################################################################

data_image0

_cell_length_a                          8.5173
_cell_length_b                          9.7615
_cell_length_c                          22.4055
_cell_angle_alpha                       90
_cell_angle_beta                        90
_cell_angle_gamma                       92.285
_symmetry_space_group_name_H-M          'P 1'
_symmetry_int_tables_number             1
loop_
  _symmetry_equiv_pos_as_xyz
         'x, y, z' 
loop_
  _atom_site_label
  _atom_site_occupancy
  _atom_site_fract_x
  _atom_site_fract_y
  _atom_site_fract_z
  _atom_site_thermal_displace_type
  _atom_site_B_iso_or_equiv
  _atom_site_type_symbol
  _atom_site_charge
         C1        1.0000    0.38850   0.74450   0.73790   Biso      1.000     C          0.121378  
         C2        1.0000    0.67870   0.14120   0.47030   Biso      1.000     C          0.26634800000000003           
         C3        1.0000    0.44430   0.10620   0.23462   Biso      1.000     C          0.1453    
         C4        1.0000    0.61150   0.25550   0.26210   Biso      1.000     C          0.121378  
         C5        1.0000    0.66540   0.60960   0.45620   Biso      1.000     C          0.12049000000000001           
         C6        1.0000    0.23250   0.15210   0.37730   Biso      1.000     C          -0.626653           
         C7        1.0000    0.26110   0.00170   0.38050   Biso      1.000     C          0.713199  
         C8        1.0000    0.16730   0.73510   0.93650   Biso      1.000     C          0.144832  
         C9        1.0000    0.16930   0.24550   0.91480   Biso      1.000     C          0.23188000000000003           
         C10       1.0000    0.32130   0.35880   0.97030   Biso      1.000     C          0.266349  
         C11       1.0000    0.55570   0.39380   0.73462   Biso      1.000     C          0.1453    
         C12       1.0000    0.38850   0.24450   0.76210   Biso      1.000     C          0.121378  
         C13       1.0000    0.33460   0.89040   0.95620   Biso      1.000     C          0.12048900000000001           
         C14       1.0000    0.76750   0.34790   0.87730   Biso      1.000     C          -0.626653           
         C15       1.0000    0.73890   0.49830   0.88050   Biso      1.000     C          0.713199  
         C16       1.0000    0.16730   0.23510   0.56350   Biso      1.000     C          0.144832  
         C17       1.0000    0.16930   0.74550   0.58520   Biso      1.000     C          0.231879  
         C18       1.0000    0.32130   0.85880   0.52970   Biso      1.000     C          0.26635   
         C19       1.0000    0.55570   0.89380   0.76538   Biso      1.000     C          0.1453    
         C20       1.0000    0.33460   0.39040   0.54380   Biso      1.000     C          0.12048800000000001           
         C21       1.0000    0.76750   0.84790   0.62270   Biso      1.000     C          -0.626653           
         C22       1.0000    0.73890   0.99830   0.61950   Biso      1.000     C          0.713199  
         C23       1.0000    0.83270   0.26490   0.06350   Biso      1.000     C          0.144831  
         C24       1.0000    0.83070   0.75450   0.08520   Biso      1.000     C          0.23188000000000003           
         C25       1.0000    0.67870   0.64120   0.02970   Biso      1.000     C          0.26634800000000003           
         C26       1.0000    0.44430   0.60620   0.26538   Biso      1.000     C          0.1453    
         C27       1.0000    0.61150   0.75550   0.23790   Biso      1.000     C          0.121378  
         C28       1.0000    0.66540   0.10960   0.04380   Biso      1.000     C          0.12049000000000001           
         C29       1.0000    0.23250   0.65210   0.12270   Biso      1.000     C          -0.626653           
         C30       1.0000    0.26110   0.50170   0.11950   Biso      1.000     C          0.713199  
         C31       1.0000    0.83070   0.25450   0.41480   Biso      1.000     C          0.23188000000000003           
         C32       1.0000    0.83270   0.76490   0.43650   Biso      1.000     C          0.144831  
         Cd1       1.0000    0.64250   0.98226   0.34782   Biso      1.000     Cd          0.8191    
         Cd2       1.0000    0.00000   0.00000   0.00000   Biso      1.000     Cd          0.748045  
         Cd3       1.0000    0.00000   0.50000   0.50000   Biso      1.000     Cd          0.7480439999999999  
         Cd4       1.0000    0.32982   0.22573   0.10207   Biso      1.000     Cd          0.7549680000000001  
         Cd5       1.0000    0.64250   0.48226   0.15218   Biso      1.000     Cd          0.8191    
         Cd6       1.0000    0.35750   0.01774   0.65218   Biso      1.000     Cd          0.819101  
         Cd7       1.0000    0.67018   0.77427   0.89793   Biso      1.000     Cd          0.754967  
         Cd8       1.0000    0.67018   0.27427   0.60207   Biso      1.000     Cd          0.754967  
         Cd9       1.0000    0.32982   0.72573   0.39793   Biso      1.000     Cd          0.7549680000000001  
         Cd10      1.0000    0.35750   0.51774   0.84782   Biso      1.000     Cd          0.819101  
         Cl1       1.0000    0.84096   0.49143   0.60780   Biso      1.000     Cl          -0.519279           
         Cl2       1.0000    0.84096   0.99143   0.89220   Biso      1.000     Cl          -0.519279           
         Cl3       1.0000    0.15904   0.50857   0.39220   Biso      1.000     Cl          -0.519279           
         Cl4       1.0000    0.15904   0.00857   0.10780   Biso      1.000     Cl          -0.519279           
         H1        1.0000    0.12670   0.16490   0.36420   Biso      1.000     H          0.170996  
         H2        1.0000    0.38190   0.52600   0.26730   Biso      1.000     H          0.104775  
         H3        1.0000    0.92730   0.81550   0.43390   Biso      1.000     H          0.10346500000000002           
         H4        1.0000    0.38190   0.02600   0.23270   Biso      1.000     H          0.104775  
         H5        1.0000    0.69010   0.30240   0.28360   Biso      1.000     H          0.098439  
         H6        1.0000    0.61830   0.52800   0.47000   Biso      1.000     H          0.096075  
         H7        1.0000    0.30460   0.19510   0.34950   Biso      1.000     H          0.183927  
         H8        1.0000    0.69010   0.80240   0.21640   Biso      1.000     H          0.098439  
         H9        1.0000    0.07270   0.68450   0.93390   Biso      1.000     H          0.10346500000000002           
         H10       1.0000    0.61830   0.02800   0.03000   Biso      1.000     H          0.096075  
         H11       1.0000    0.12670   0.66490   0.13580   Biso      1.000     H          0.170996  
         H12       1.0000    0.24770   0.19240   0.41600   Biso      1.000     H          0.192922  
         H13       1.0000    0.24770   0.69240   0.08400   Biso      1.000     H          0.192922  
         H14       1.0000    0.92730   0.31550   0.06610   Biso      1.000     H          0.10346500000000002           
         H15       1.0000    0.75230   0.80760   0.58400   Biso      1.000     H          0.192922  
         H16       1.0000    0.69540   0.80490   0.65050   Biso      1.000     H          0.183927  
         H17       1.0000    0.87330   0.83510   0.63580   Biso      1.000     H          0.170996  
         H18       1.0000    0.38170   0.47200   0.53000   Biso      1.000     H          0.096075  
         H19       1.0000    0.30460   0.69510   0.15050   Biso      1.000     H          0.183927  
         H20       1.0000    0.61810   0.97400   0.76730   Biso      1.000     H          0.104775  
         H21       1.0000    0.07270   0.18450   0.56610   Biso      1.000     H          0.10346500000000002           
         H22       1.0000    0.75230   0.30760   0.91600   Biso      1.000     H          0.192922  
         H23       1.0000    0.69540   0.30490   0.84950   Biso      1.000     H          0.183927  
         H24       1.0000    0.87330   0.33510   0.86420   Biso      1.000     H          0.170996  
         H25       1.0000    0.38170   0.97200   0.97000   Biso      1.000     H          0.096075  
         H26       1.0000    0.30990   0.19760   0.78360   Biso      1.000     H          0.098439  
         H27       1.0000    0.61810   0.47400   0.73270   Biso      1.000     H          0.104775  
         H28       1.0000    0.30990   0.69760   0.71640   Biso      1.000     H          0.098439  
         N1        1.0000    0.30170   0.19260   0.58494   Biso      1.000     N          -0.22054200000000002          
         N2        1.0000    0.41240   0.29370   0.57165   Biso      1.000     N          -0.20665  
         N3        1.0000    0.56600   0.79280   0.80350   Biso      1.000     N          -0.183141           
         N4        1.0000    0.25580   0.76110   0.49555   Biso      1.000     N          -0.22862  
         N5        1.0000    0.45510   0.69460   0.78608   Biso      1.000     N          -0.218813           
         N6        1.0000    0.55380   0.63000   0.22324   Biso      1.000     N          -0.329797           
         N7        1.0000    0.72890   0.64740   0.08601   Biso      1.000     N          -0.404449           
         N8        1.0000    0.58760   0.20630   0.07165   Biso      1.000     N          -0.20666199999999998          
         N9        1.0000    0.84340   0.81310   0.03201   Biso      1.000     N          -0.219448           
         N10       1.0000    0.69830   0.30740   0.08494   Biso      1.000     N          -0.220531           
         N11       1.0000    0.43400   0.70720   0.30350   Biso      1.000     N          -0.183141           
         N12       1.0000    0.74420   0.73890   0.99555   Biso      1.000     N          -0.22860999999999998          
         N13       1.0000    0.54490   0.80540   0.28608   Biso      1.000     N          -0.218813           
         N14       1.0000    0.15660   0.68690   0.53201   Biso      1.000     N          -0.21943800000000002          
         N15       1.0000    0.81840   0.14200   0.03771   Biso      1.000     N          -0.306525           
         N16       1.0000    0.18160   0.35800   0.53771   Biso      1.000     N          -0.306525           
         N17       1.0000    0.58760   0.70630   0.42835   Biso      1.000     N          -0.206661           
         N18       1.0000    0.44620   0.87000   0.72324   Biso      1.000     N          -0.329798           
         N19       1.0000    0.55380   0.13000   0.27676   Biso      1.000     N          -0.329797           
         N20       1.0000    0.72890   0.14740   0.41399   Biso      1.000     N          -0.404449           
         N21       1.0000    0.81840   0.64200   0.46229   Biso      1.000     N          -0.306525           
         N22       1.0000    0.84340   0.31310   0.46799   Biso      1.000     N          -0.219448           
         N23       1.0000    0.27110   0.85260   0.58601   Biso      1.000     N          -0.404449           
         N24       1.0000    0.43400   0.20720   0.19650   Biso      1.000     N          -0.183141           
         N25       1.0000    0.74420   0.23890   0.50445   Biso      1.000     N          -0.22860999999999998          
         N26       1.0000    0.54490   0.30540   0.21392   Biso      1.000     N          -0.218813           
         N27       1.0000    0.69830   0.80740   0.41506   Biso      1.000     N          -0.220531           
         N28       1.0000    0.27110   0.35260   0.91399   Biso      1.000     N          -0.404449           
         N29       1.0000    0.18160   0.85800   0.96229   Biso      1.000     N          -0.306525           
         N30       1.0000    0.15660   0.18690   0.96799   Biso      1.000     N          -0.219448           
         N31       1.0000    0.30170   0.69260   0.91506   Biso      1.000     N          -0.22054200000000002          
         N32       1.0000    0.41240   0.79370   0.92835   Biso      1.000     N          -0.20665  
         N33       1.0000    0.56600   0.29280   0.69650   Biso      1.000     N          -0.183141           
         N34       1.0000    0.25580   0.26110   0.00445   Biso      1.000     N          -0.22860999999999998          
         N35       1.0000    0.45510   0.19460   0.71392   Biso      1.000     N          -0.218813           
         N36       1.0000    0.44620   0.37000   0.77676   Biso      1.000     N          -0.329798           
         O1        1.0000    0.60460   0.03530   0.60311   Biso      1.000     O          -0.597477           
         O2        1.0000    0.84580   0.08470   0.63159   Biso      1.000     O          -0.580735           
         O3        1.0000    0.60460   0.53530   0.89689   Biso      1.000     O          -0.597477           
         O4        1.0000    0.15420   0.41530   0.13159   Biso      1.000     O          -0.580735           
         O5        1.0000    0.39540   0.96470   0.39689   Biso      1.000     O          -0.597477           
         O6        1.0000    0.15420   0.91530   0.36841   Biso      1.000     O          -0.580735           
         O7        1.0000    0.84580   0.58470   0.86841   Biso      1.000     O          -0.580735           
         O8        1.0000    0.39540   0.46470   0.10311   Biso      1.000     O          -0.597477 