
##########################################################################
#               Crystallographic Information Format file
#               Produced by PyCifRW module
#
#  This is a CIF file.  CIF has been adopted by the International
#  Union of Crystallography as the standard for data archiving and
#  transmission.
#
#  For information on this file format, follow the CIF links at
#  http://www.iucr.org
##########################################################################

data_image0

_cell_length_a                          10.4405
_cell_length_b                          13.3926
_cell_length_c                          20.454
_cell_angle_alpha                       90
_cell_angle_beta                        90
_cell_angle_gamma                       94.425
_symmetry_space_group_name_H-M          'P 1'
_symmetry_int_tables_number             1
loop_
  _symmetry_equiv_pos_as_xyz
         'x, y, z' 
loop_
  _atom_site_label
  _atom_site_occupancy
  _atom_site_fract_x
  _atom_site_fract_y
  _atom_site_fract_z
  _atom_site_thermal_displace_type
  _atom_site_B_iso_or_equiv
  _atom_site_type_symbol
  _atom_site_charge
         C1        1.0000    0.10750   0.26320   0.63139   Biso      1.000     C          -0.217635           
         C2        1.0000    0.30070   0.70602   0.45565   Biso      1.000     C          -0.321671           
         C3        1.0000    0.45150   0.59300   0.93335   Biso      1.000     C          0.09209   
         C4        1.0000    0.18490   0.74460   0.14802   Biso      1.000     C          0.570003  
         C5        1.0000    0.79640   0.87480   0.88286   Biso      1.000     C          -0.250879           
         C6        1.0000    0.46750   0.98530   0.96807   Biso      1.000     C          -0.031237           
         C7        1.0000    0.70200   0.82860   0.84251   Biso      1.000     C          -0.022203           
         C8        1.0000    0.29800   0.17140   0.15749   Biso      1.000     C          -0.022204           
         C9        1.0000    0.40450   0.68669   0.67759   Biso      1.000     C          -0.015485           
         C10       1.0000    0.36290   0.73250   0.34435   Biso      1.000     C          -0.226683           
         C11       1.0000    0.45170   0.67956   0.01996   Biso      1.000     C          0.110381  
         C12       1.0000    0.44590   0.11090   0.60770   Biso      1.000     C          0.111244  
         C13       1.0000    0.70500   0.64430   0.44856   Biso      1.000     C          0.288308  
         C14       1.0000    0.54850   0.40700   0.06665   Biso      1.000     C          0.092092  
         C15       1.0000    0.20500   0.63421   0.43557   Biso      1.000     C          0.278802  
         C16       1.0000    0.23220   0.83800   0.82536   Biso      1.000     C          -0.010323           
         C17       1.0000    0.66800   0.52300   0.78585   Biso      1.000     C          0.561392  
         C18       1.0000    0.20360   0.12520   0.11714   Biso      1.000     C          -0.250878           
         C19       1.0000    0.29640   0.37480   0.61714   Biso      1.000     C          -0.250879           
         C20       1.0000    0.46400   0.48143   0.52997   Biso      1.000     C          -0.033097           
         C21       1.0000    0.98040   0.64920   0.99050   Biso      1.000     C          0.087297  
         C22       1.0000    0.76780   0.16200   0.17464   Biso      1.000     C          -0.010324           
         C23       1.0000    0.53470   0.70140   0.66669   Biso      1.000     C          -0.119654           
         C24       1.0000    0.26780   0.66200   0.32536   Biso      1.000     C          -0.010319           
         C25       1.0000    0.14200   0.88992   0.21905   Biso      1.000     C          -0.120474           
         C26       1.0000    0.68490   0.24460   0.35198   Biso      1.000     C          0.570003  
         C27       1.0000    0.63710   0.26750   0.65565   Biso      1.000     C          -0.226683           
         C28       1.0000    0.87900   0.25385   0.09084   Biso      1.000     C          0.207199  
         C29       1.0000    0.31510   0.75540   0.64802   Biso      1.000     C          0.570003  
         C30       1.0000    0.96530   0.79860   0.16669   Biso      1.000     C          -0.119659           
         C31       1.0000    0.10830   0.24406   0.56571   Biso      1.000     C          0.207939  
         C32       1.0000    0.42570   0.42843   0.25678   Biso      1.000     C          -0.024692           
         C33       1.0000    0.95170   0.17956   0.48004   Biso      1.000     C          0.11038   
         C34       1.0000    0.31250   0.88840   0.87030   Biso      1.000     C          -0.245934           
         C35       1.0000    0.89250   0.73680   0.36861   Biso      1.000     C          -0.217635           
         C36       1.0000    0.05630   0.94613   0.25208   Biso      1.000     C          -0.128231           
         C37       1.0000    0.20200   0.32860   0.65749   Biso      1.000     C          -0.0222   
         C38       1.0000    0.29860   0.21202   0.02512   Biso      1.000     C          -0.316617           
         C39       1.0000    0.94590   0.61090   0.89230   Biso      1.000     C          0.111245  
         C40       1.0000    0.01960   0.35080   0.00950   Biso      1.000     C          0.087297  
         C41       1.0000    0.83200   0.97700   0.28585   Biso      1.000     C          0.561392  
         C42       1.0000    0.11970   0.14450   0.80099   Biso      1.000     C          -0.115794           
         C43       1.0000    0.46530   0.29860   0.33331   Biso      1.000     C          -0.119659           
         C44       1.0000    0.69930   0.29398   0.54435   Biso      1.000     C          -0.321672           
         C45       1.0000    0.55630   0.44613   0.24792   Biso      1.000     C          -0.128233           
         C46       1.0000    0.57430   0.57157   0.74322   Biso      1.000     C          -0.024693           
         C47       1.0000    0.53250   0.01470   0.03193   Biso      1.000     C          -0.031237           
         C48       1.0000    0.18750   0.61160   0.37030   Biso      1.000     C          -0.245927           
         C49       1.0000    0.04850   0.90700   0.43335   Biso      1.000     C          0.092092  
         C50       1.0000    0.33200   0.47700   0.21415   Biso      1.000     C          0.561391  
         C51       1.0000    0.48040   0.14920   0.50950   Biso      1.000     C          0.087298  
         C52       1.0000    0.79500   0.85570   0.94856   Biso      1.000     C          0.288317  
         C53       1.0000    0.62100   0.24615   0.59084   Biso      1.000     C          0.207208  
         C54       1.0000    0.07430   0.07157   0.75678   Biso      1.000     C          -0.024692           
         C55       1.0000    0.70500   0.13421   0.06443   Biso      1.000     C          0.278801  
         C56       1.0000    0.79800   0.67140   0.34251   Biso      1.000     C          -0.022201           
         C57       1.0000    0.80070   0.20602   0.04435   Biso      1.000     C          -0.321665           
         C58       1.0000    0.37900   0.75385   0.40916   Biso      1.000     C          0.207208  
         C59       1.0000    0.68750   0.11160   0.12970   Biso      1.000     C          -0.245926           
         C60       1.0000    0.55410   0.88910   0.39230   Biso      1.000     C          0.111245  
         C61       1.0000    0.20500   0.14430   0.05144   Biso      1.000     C          0.288317  
         C62       1.0000    0.94370   0.05387   0.74792   Biso      1.000     C          -0.128233           
         C63       1.0000    0.96750   0.48530   0.53193   Biso      1.000     C          -0.031237           
         C64       1.0000    0.81510   0.25540   0.85198   Biso      1.000     C          0.570003  
         C65       1.0000    0.51960   0.85080   0.49050   Biso      1.000     C          0.087297  
         C66       1.0000    0.03600   0.01857   0.02997   Biso      1.000     C          -0.033097           
         C67       1.0000    0.92570   0.92843   0.24322   Biso      1.000     C          -0.024694           
         C68       1.0000    0.89170   0.75594   0.43429   Biso      1.000     C          0.207939  
         C69       1.0000    0.96400   0.98143   0.97003   Biso      1.000     C          -0.033097           
         C70       1.0000    0.54830   0.32044   0.98004   Biso      1.000     C          0.11038   
         C71       1.0000    0.64200   0.38992   0.28095   Biso      1.000     C          -0.120473           
         C72       1.0000    0.79860   0.71202   0.47488   Biso      1.000     C          -0.316612           
         C73       1.0000    0.09550   0.81331   0.17759   Biso      1.000     C          -0.015482           
         C74       1.0000    0.70140   0.78798   0.97488   Biso      1.000     C          -0.316617           
         C75       1.0000    0.29500   0.35570   0.55144   Biso      1.000     C          0.288316  
         C76       1.0000    0.04830   0.82044   0.51996   Biso      1.000     C          0.11038   
         C77       1.0000    0.81250   0.38840   0.62970   Biso      1.000     C          -0.245935           
         C78       1.0000    0.59550   0.31331   0.32241   Biso      1.000     C          -0.015481           
         C79       1.0000    0.05410   0.38910   0.10770   Biso      1.000     C          0.111244  
         C80       1.0000    0.90450   0.18669   0.82241   Biso      1.000     C          -0.015486           
         C81       1.0000    0.39170   0.25594   0.06571   Biso      1.000     C          0.207941  
         C82       1.0000    0.39250   0.23680   0.13139   Biso      1.000     C          -0.217631           
         C83       1.0000    0.86290   0.23250   0.15565   Biso      1.000     C          -0.226673           
         C84       1.0000    0.20140   0.28798   0.52512   Biso      1.000     C          -0.316613           
         C85       1.0000    0.88030   0.85550   0.19901   Biso      1.000     C          -0.115792           
         C86       1.0000    0.70360   0.62520   0.38286   Biso      1.000     C          -0.250869           
         C87       1.0000    0.38030   0.35550   0.30099   Biso      1.000     C          -0.115792           
         C88       1.0000    0.29500   0.86579   0.93557   Biso      1.000     C          0.278808  
         C89       1.0000    0.12100   0.74615   0.90916   Biso      1.000     C          0.207199  
         C90       1.0000    0.19930   0.79398   0.95565   Biso      1.000     C          -0.321666           
         C91       1.0000    0.61970   0.64450   0.69901   Biso      1.000     C          -0.115793           
         C92       1.0000    0.73220   0.33800   0.67464   Biso      1.000     C          -0.010317           
         C93       1.0000    0.16800   0.02300   0.71415   Biso      1.000     C          0.561391  
         C94       1.0000    0.60830   0.74406   0.93429   Biso      1.000     C          0.207941  
         C95       1.0000    0.53600   0.51857   0.47003   Biso      1.000     C          -0.033097           
         C96       1.0000    0.44370   0.55387   0.75208   Biso      1.000     C          -0.128232           
         C97       1.0000    0.79500   0.36579   0.56443   Biso      1.000     C          0.278809  
         C98       1.0000    0.35800   0.61008   0.71905   Biso      1.000     C          -0.120473           
         C99       1.0000    0.03250   0.51470   0.46807   Biso      1.000     C          -0.031237           
         C100      1.0000    0.03470   0.20140   0.83331   Biso      1.000     C          -0.119653           
         C101      1.0000    0.95150   0.09300   0.56665   Biso      1.000     C          0.092092  
         C102      1.0000    0.85800   0.11008   0.78095   Biso      1.000     C          -0.120473           
         C103      1.0000    0.13710   0.76750   0.84435   Biso      1.000     C          -0.226673           
         C104      1.0000    0.60750   0.76320   0.86861   Biso      1.000     C          -0.217631           
         H1        1.0000    0.04920   0.39110   0.15310   Biso      1.000     H          0.120927  
         H2        1.0000    0.29720   0.15800   0.20210   Biso      1.000     H          0.117765  
         H3        1.0000    0.47700   0.53810   0.43650   Biso      1.000     H          0.08973   
         H4        1.0000    0.47170   0.03960   0.06260   Biso      1.000     H          0.090323  
         H5        1.0000    0.52800   0.42960   0.10810   Biso      1.000     H          0.113431  
         H6        1.0000    0.52300   0.46190   0.56350   Biso      1.000     H          0.08973   
         H7        1.0000    0.20280   0.34200   0.70210   Biso      1.000     H          0.117765  
         H8        1.0000    0.56580   0.75030   0.63720   Biso      1.000     H          0.118047  
         H9        1.0000    0.29840   0.22740   0.98080   Biso      1.000     H          0.156329  
         H10       1.0000    0.97170   0.53960   0.43740   Biso      1.000     H          0.090323  
         H11       1.0000    0.57080   0.95800   0.05140   Biso      1.000     H          0.094685  
         H12       1.0000    0.51500   0.17980   0.47200   Biso      1.000     H          0.113196  
         H13       1.0000    0.01500   0.67980   0.02800   Biso      1.000     H          0.113196  
         H14       1.0000    0.08750   0.99640   0.28060   Biso      1.000     H          0.120656  
         H15       1.0000    0.58750   0.49640   0.21940   Biso      1.000     H          0.120656  
         H16       1.0000    0.27000   0.59650   0.72460   Biso      1.000     H          0.119018  
         H17       1.0000    0.37640   0.93620   0.85680   Biso      1.000     H          0.140771  
         H18       1.0000    0.36050   0.41880   0.63490   Biso      1.000     H          0.127497  
         H19       1.0000    0.18850   0.77850   0.99970   Biso      1.000     H          0.151784  
         H20       1.0000    0.95080   0.60890   0.84690   Biso      1.000     H          0.120927  
         H21       1.0000    0.70740   0.65500   0.69110   Biso      1.000     H          0.117644  
         H22       1.0000    0.62360   0.06380   0.14320   Biso      1.000     H          0.14077   
         H23       1.0000    0.41320   0.53280   0.54750   Biso      1.000     H          0.096259  
         H24       1.0000    0.81150   0.22150   0.00030   Biso      1.000     H          0.151784  
         H25       1.0000    0.58680   0.46720   0.45250   Biso      1.000     H          0.096259  
         H26       1.0000    0.52870   0.27170   0.94850   Biso      1.000     H          0.124032  
         H27       1.0000    0.31150   0.72150   0.49970   Biso      1.000     H          0.151784  
         H28       1.0000    0.79720   0.65800   0.29790   Biso      1.000     H          0.117764  
         H29       1.0000    0.93420   0.74970   0.13720   Biso      1.000     H          0.118047  
         H30       1.0000    0.45610   0.26750   0.15800   Biso      1.000     H          0.128018  
         H31       1.0000    0.75700   0.14760   0.21890   Biso      1.000     H          0.119419  
         H32       1.0000    0.79260   0.84500   0.19110   Biso      1.000     H          0.117644  
         H33       1.0000    0.97130   0.22830   0.44850   Biso      1.000     H          0.124032  
         H34       1.0000    0.86050   0.91880   0.86510   Biso      1.000     H          0.127497  
         H35       1.0000    0.08420   0.73450   0.81330   Biso      1.000     H          0.136919  
         H36       1.0000    0.02800   0.92960   0.39190   Biso      1.000     H          0.113431  
         H37       1.0000    0.25700   0.64760   0.28110   Biso      1.000     H          0.119419  
         H38       1.0000    0.91580   0.26550   0.18670   Biso      1.000     H          0.136919  
         H39       1.0000    0.24300   0.85240   0.78110   Biso      1.000     H          0.119419  
         H40       1.0000    0.47130   0.72830   0.05150   Biso      1.000     H          0.124031  
         H41       1.0000    0.58420   0.23450   0.68670   Biso      1.000     H          0.13692   
         H42       1.0000    0.42920   0.04200   0.94860   Biso      1.000     H          0.094686  
         H43       1.0000    0.29260   0.34500   0.30890   Biso      1.000     H          0.117644  
         H44       1.0000    0.47200   0.57040   0.89190   Biso      1.000     H          0.113431  
         H45       1.0000    0.91250   0.00360   0.71940   Biso      1.000     H          0.120656  
         H46       1.0000    0.52830   0.96040   0.93740   Biso      1.000     H          0.090323  
         H47       1.0000    0.63950   0.58120   0.36510   Biso      1.000     H          0.127496  
         H48       1.0000    0.07080   0.45800   0.44860   Biso      1.000     H          0.094685  
         H49       1.0000    0.92920   0.54200   0.55140   Biso      1.000     H          0.094685  
         H50       1.0000    0.54920   0.89110   0.34690   Biso      1.000     H          0.120927  
         H51       1.0000    0.12360   0.56380   0.35680   Biso      1.000     H          0.14077   
         H52       1.0000    0.04390   0.23250   0.65800   Biso      1.000     H          0.128018  
         H53       1.0000    0.98500   0.32020   0.97200   Biso      1.000     H          0.113196  
         H54       1.0000    0.45080   0.10890   0.65310   Biso      1.000     H          0.120927  
         H55       1.0000    0.23000   0.90350   0.22460   Biso      1.000     H          0.119018  
         H56       1.0000    0.97700   0.03810   0.06350   Biso      1.000     H          0.08973   
         H57       1.0000    0.70280   0.84200   0.79790   Biso      1.000     H          0.117764  
         H58       1.0000    0.87640   0.43620   0.64320   Biso      1.000     H          0.140771  
         H59       1.0000    0.02300   0.96190   0.93650   Biso      1.000     H          0.08973   
         H60       1.0000    0.02830   0.46040   0.56260   Biso      1.000     H          0.090323  
         H61       1.0000    0.74300   0.35240   0.71890   Biso      1.000     H          0.119418  
         H62       1.0000    0.70160   0.77260   0.01920   Biso      1.000     H          0.156329  
         H63       1.0000    0.48500   0.82020   0.52800   Biso      1.000     H          0.113196  
         H64       1.0000    0.43420   0.24970   0.36280   Biso      1.000     H          0.118047  
         H65       1.0000    0.41250   0.50360   0.78060   Biso      1.000     H          0.120655  
         H66       1.0000    0.08680   0.96720   0.04750   Biso      1.000     H          0.096259  
         H67       1.0000    0.97200   0.07040   0.60810   Biso      1.000     H          0.113431  
         H68       1.0000    0.54390   0.73250   0.84200   Biso      1.000     H          0.128018  
         H69       1.0000    0.68850   0.27850   0.50030   Biso      1.000     H          0.151785  
         H70       1.0000    0.20740   0.15500   0.80890   Biso      1.000     H          0.117644  
         H71       1.0000    0.95610   0.76750   0.34200   Biso      1.000     H          0.128018  
         H72       1.0000    0.73000   0.40350   0.27540   Biso      1.000     H          0.119018  
         H73       1.0000    0.20160   0.27260   0.48080   Biso      1.000     H          0.156329  
         H74       1.0000    0.06580   0.25030   0.86280   Biso      1.000     H          0.118046  
         H75       1.0000    0.79840   0.72740   0.51920   Biso      1.000     H          0.156329  
         H76       1.0000    0.41580   0.76550   0.31330   Biso      1.000     H          0.13692   
         H77       1.0000    0.77000   0.09650   0.77540   Biso      1.000     H          0.119018  
         H78       1.0000    0.02870   0.77170   0.55150   Biso      1.000     H          0.124031  
         H79       1.0000    0.13950   0.08120   0.13490   Biso      1.000     H          0.127497  
         H80       1.0000    0.91320   0.03280   0.95250   Biso      1.000     H          0.096259  
         N1        1.0000    0.86570   0.55452   0.92646   Biso      1.000     N          -0.166947           
         N2        1.0000    0.49050   0.32401   0.03828   Biso      1.000     N          -0.00921  
         N3        1.0000    0.63430   0.94548   0.42646   Biso      1.000     N          -0.166948           
         N4        1.0000    0.38690   0.07851   0.50892   Biso      1.000     N          -0.204327           
         N5        1.0000    0.86460   0.04895   0.52956   Biso      1.000     N          -0.204822           
         N6        1.0000    0.36410   0.60549   0.02644   Biso      1.000     N          -0.174018           
         N7        1.0000    0.47900   0.82744   0.42967   Biso      1.000     N          -0.005353           
         N8        1.0000    0.61310   0.92149   0.49108   Biso      1.000     N          -0.204319           
         N9        1.0000    0.63540   0.45105   0.02956   Biso      1.000     N          -0.204822           
         N10       1.0000    0.86410   0.10549   0.47356   Biso      1.000     N          -0.174005           
         N11       1.0000    0.02100   0.67256   0.92967   Biso      1.000     N          -0.005353           
         N12       1.0000    0.36570   0.05452   0.57354   Biso      1.000     N          -0.166939           
         N13       1.0000    0.11310   0.42149   0.00892   Biso      1.000     N          -0.204327           
         N14       1.0000    0.50950   0.67599   0.96172   Biso      1.000     N          -0.00921  
         N15       1.0000    0.00950   0.17599   0.53828   Biso      1.000     N          -0.00921  
         N16       1.0000    0.63590   0.39451   0.97356   Biso      1.000     N          -0.174005           
         N17       1.0000    0.88690   0.57851   0.99108   Biso      1.000     N          -0.204319           
         N18       1.0000    0.52100   0.17256   0.57033   Biso      1.000     N          -0.005353           
         N19       1.0000    0.13540   0.95105   0.47044   Biso      1.000     N          -0.204822           
         N20       1.0000    0.99050   0.82401   0.46172   Biso      1.000     N          -0.00921  
         N21       1.0000    0.13590   0.89451   0.52644   Biso      1.000     N          -0.174004           
         N22       1.0000    0.36460   0.54895   0.97044   Biso      1.000     N          -0.204809           
         N23       1.0000    0.13430   0.44548   0.07354   Biso      1.000     N          -0.166939           
         N24       1.0000    0.97900   0.32744   0.07033   Biso      1.000     N          -0.005353           
         O1        1.0000    0.88297   0.89685   0.99175   Biso      1.000     O          -0.208095           
         O2        1.0000    0.12985   0.59221   0.48540   Biso      1.000     O          -0.2131   
         O3        1.0000    0.86612   0.33882   0.87337   Biso      1.000     O          -0.582142           
         O4        1.0000    0.69850   0.23444   0.85328   Biso      1.000     O          -0.574738           
         O5        1.0000    0.88215   0.02952   0.33335   Biso      1.000     O          -0.575605           
         O6        1.0000    0.80150   0.26556   0.35328   Biso      1.000     O          -0.574738           
         O7        1.0000    0.63388   0.16118   0.37337   Biso      1.000     O          -0.582142           
         O8        1.0000    0.11703   0.10315   0.00825   Biso      1.000     O          -0.208095           
         O9        1.0000    0.87015   0.40779   0.51460   Biso      1.000     O          -0.2131   
         O10       1.0000    0.38215   0.52952   0.16665   Biso      1.000     O          -0.575604           
         O11       1.0000    0.28403   0.03457   0.72395   Biso      1.000     O          -0.563878           
         O12       1.0000    0.61785   0.47048   0.83335   Biso      1.000     O          -0.575605           
         O13       1.0000    0.21597   0.46543   0.22395   Biso      1.000     O          -0.563879           
         O14       1.0000    0.11785   0.97048   0.66665   Biso      1.000     O          -0.575604           
         O15       1.0000    0.19850   0.73444   0.64672   Biso      1.000     O          -0.574738           
         O16       1.0000    0.37015   0.90779   0.98540   Biso      1.000     O          -0.2131   
         O17       1.0000    0.13388   0.66118   0.12663   Biso      1.000     O          -0.582142           
         O18       1.0000    0.71597   0.96543   0.27605   Biso      1.000     O          -0.563879           
         O19       1.0000    0.62985   0.09221   0.01460   Biso      1.000     O          -0.2131   
         O20       1.0000    0.78403   0.53457   0.77605   Biso      1.000     O          -0.563879           
         O21       1.0000    0.30150   0.76556   0.14672   Biso      1.000     O          -0.574738           
         O22       1.0000    0.61703   0.60315   0.49175   Biso      1.000     O          -0.208095           
         O23       1.0000    0.36612   0.83882   0.62663   Biso      1.000     O          -0.582142           
         O24       1.0000    0.38297   0.39685   0.50825   Biso      1.000     O          -0.208095           
         Zn1       1.0000    0.74659   0.43727   0.89690   Biso      1.000     Zn          0.771683  
         Zn2       1.0000    0.24659   0.93727   0.60310   Biso      1.000     Zn          0.771682  
         Zn3       1.0000    0.75341   0.06273   0.39690   Biso      1.000     Zn          0.771683  
         Zn4       1.0000    0.25341   0.56273   0.10310   Biso      1.000     Zn          0.771684 