
##########################################################################
#               Crystallographic Information Format file
#               Produced by PyCifRW module
#
#  This is a CIF file.  CIF has been adopted by the International
#  Union of Crystallography as the standard for data archiving and
#  transmission.
#
#  For information on this file format, follow the CIF links at
#  http://www.iucr.org
##########################################################################

data_image0

_cell_length_a                          10.0601
_cell_length_b                          14.1851
_cell_length_c                          10.2537
_cell_angle_alpha                       92.262
_cell_angle_beta                        90
_cell_angle_gamma                       90
_symmetry_space_group_name_H-M          'P 1'
_symmetry_int_tables_number             1
loop_
  _symmetry_equiv_pos_as_xyz
         'x, y, z' 
loop_
  _atom_site_label
  _atom_site_occupancy
  _atom_site_fract_x
  _atom_site_fract_y
  _atom_site_fract_z
  _atom_site_thermal_displace_type
  _atom_site_B_iso_or_equiv
  _atom_site_type_symbol
  _atom_site_charge
         C1        1.0000    0.71550   0.37170   0.18340   Biso      1.000     C          0.5697409999999999  
         C2        1.0000    0.49130   0.20100   0.95030   Biso      1.000     C          0.569076  
         C3        1.0000    0.52990   0.97410   0.06750   Biso      1.000     C          0.6435069999999999  
         C4        1.0000    0.25820   0.94300   0.12470   Biso      1.000     C          0.6586069999999999  
         C5        1.0000    0.22610   0.21070   0.17780   Biso      1.000     C          0.587475  
         C6        1.0000    0.40970   0.11080   0.96720   Biso      1.000     C          0.028102  
         C7        1.0000    0.44580   0.06090   0.09120   Biso      1.000     C          -0.196151           
         C8        1.0000    0.72540   0.46200   0.26850   Biso      1.000     C          0.040638  
         C9        1.0000    0.30970   0.04190   0.15880   Biso      1.000     C          -0.159696           
         C10       1.0000    0.00160   0.36900   0.91930   Biso      1.000     C          0.580491  
         C11       1.0000    0.94200   0.58130   0.77820   Biso      1.000     C          0.646608  
         C12       1.0000    0.21850   0.63210   0.74280   Biso      1.000     C          0.655647  
         C13       1.0000    0.28450   0.37170   0.68340   Biso      1.000     C          0.569739  
         C14       1.0000    0.08030   0.45970   0.89710   Biso      1.000     C          0.028412  
         C15       1.0000    0.04430   0.50200   0.76590   Biso      1.000     C          -0.164773           
         C16       1.0000    0.21900   0.11700   0.09800   Biso      1.000     C          0.032026  
         C17       1.0000    0.82400   0.53180   0.20640   Biso      1.000     C          -0.197623           
         C18       1.0000    0.95570   0.50200   0.26590   Biso      1.000     C          -0.164768           
         C19       1.0000    0.91970   0.45970   0.39710   Biso      1.000     C          0.028408999999999997          
         C20       1.0000    0.50870   0.20100   0.45030   Biso      1.000     C          0.569075  
         C21       1.0000    0.47010   0.97410   0.56750   Biso      1.000     C          0.643505  
         C22       1.0000    0.74180   0.94300   0.62470   Biso      1.000     C          0.658608  
         C23       1.0000    0.17600   0.53180   0.70640   Biso      1.000     C          -0.197621           
         C24       1.0000    0.59030   0.11080   0.46720   Biso      1.000     C          0.0281    
         C25       1.0000    0.77390   0.21070   0.67780   Biso      1.000     C          0.587477  
         C26       1.0000    0.69030   0.04190   0.65880   Biso      1.000     C          -0.159697           
         C27       1.0000    0.78100   0.11700   0.59800   Biso      1.000     C          0.032027  
         C28       1.0000    0.99840   0.36900   0.41930   Biso      1.000     C          0.580491  
         C29       1.0000    0.05800   0.58130   0.27820   Biso      1.000     C          0.646602  
         C30       1.0000    0.78150   0.63210   0.24280   Biso      1.000     C          0.6556489999999999  
         C31       1.0000    0.55420   0.06090   0.59120   Biso      1.000     C          -0.196152           
         C32       1.0000    0.27460   0.46200   0.76850   Biso      1.000     C          0.040636  
         Cl1       1.0000    0.10602   0.97020   0.52243   Biso      1.000     Cl          -0.504293           
         Cl2       1.0000    0.62553   0.69028   0.65256   Biso      1.000     Cl          -0.636161           
         Cl3       1.0000    0.89398   0.97020   0.02243   Biso      1.000     Cl          -0.50429  
         Cl4       1.0000    0.37447   0.69028   0.15256   Biso      1.000     Cl          -0.636156           
         Cu1       1.0000    0.24910   0.28527   0.92567   Biso      1.000     Cu          0.919949  
         Cu2       1.0000    0.12226   0.77066   0.20152   Biso      1.000     Cu          0.960398  
         Cu3       1.0000    0.74280   0.28736   0.93799   Biso      1.000     Cu          0.9566620000000001  
         Cu4       1.0000    0.73541   0.87612   0.94017   Biso      1.000     Cu          0.912515  
         Cu5       1.0000    0.71876   0.66430   0.90819   Biso      1.000     Cu          0.9323870000000001  
         Cu6       1.0000    0.59319   0.78158   0.15630   Biso      1.000     Cu          0.9791719999999999  
         Cu7       1.0000    0.76843   0.78866   0.43177   Biso      1.000     Cu          0.948783  
         Cu8       1.0000    0.25720   0.28736   0.43799   Biso      1.000     Cu          0.9566459999999999  
         Cu9       1.0000    0.75090   0.28527   0.42567   Biso      1.000     Cu          0.91995   
         Cu10      1.0000    0.28124   0.66430   0.40819   Biso      1.000     Cu          0.9324020000000001  
         Cu11      1.0000    0.40681   0.78158   0.65630   Biso      1.000     Cu          0.979175  
         Cu12      1.0000    0.87774   0.77066   0.70152   Biso      1.000     Cu          0.9604010000000001  
         Cu13      1.0000    0.23157   0.78866   0.93177   Biso      1.000     Cu          0.948784  
         Cu14      1.0000    0.26459   0.87612   0.44017   Biso      1.000     Cu          0.9125139999999999  
         H1        1.0000    0.00300   0.45400   0.71200   Biso      1.000     H          0.130943  
         H2        1.0000    0.58900   0.87040   0.35800   Biso      1.000     H          0.396642  
         H3        1.0000    0.35900   0.49500   0.76900   Biso      1.000     H          0.11641099999999999           
         H4        1.0000    0.18100   0.52100   0.62100   Biso      1.000     H          0.132884  
         H5        1.0000    0.06500   0.50500   0.96900   Biso      1.000     H          0.110911  
         H6        1.0000    0.52600   0.77400   0.92200   Biso      1.000     H          0.396362  
         H7        1.0000    0.31400   0.05400   0.25400   Biso      1.000     H          0.13472699999999999           
         H8        1.0000    0.07400   0.76400   0.43600   Biso      1.000     H          0.399337  
         H9        1.0000    0.13100   0.09400   0.08200   Biso      1.000     H          0.12488900000000001           
         H10       1.0000    0.97500   0.84500   0.52200   Biso      1.000     H          0.33279699999999995           
         H11       1.0000    0.56700   0.07900   0.39100   Biso      1.000     H          0.109251  
         H12       1.0000    0.49900   0.09500   0.63500   Biso      1.000     H          0.141201  
         H13       1.0000    0.68600   0.05400   0.75400   Biso      1.000     H          0.134729  
         H14       1.0000    0.93500   0.50500   0.46900   Biso      1.000     H          0.11091199999999998           
         H15       1.0000    0.99700   0.45400   0.21200   Biso      1.000     H          0.130942  
         H16       1.0000    0.81900   0.52100   0.12100   Biso      1.000     H          0.13288599999999998           
         H17       1.0000    0.86900   0.09400   0.58200   Biso      1.000     H          0.124891  
         H18       1.0000    0.64100   0.49500   0.26900   Biso      1.000     H          0.11641199999999999           
         H19       1.0000    0.47400   0.77400   0.42200   Biso      1.000     H          0.396366  
         H20       1.0000    0.41100   0.87040   0.85800   Biso      1.000     H          0.39664099999999997           
         H21       1.0000    0.92600   0.76400   0.93600   Biso      1.000     H          0.399334  
         H22       1.0000    0.02500   0.84500   0.02200   Biso      1.000     H          0.33279699999999995           
         H23       1.0000    0.43300   0.07900   0.89100   Biso      1.000     H          0.109251  
         H24       1.0000    0.50100   0.09500   0.13500   Biso      1.000     H          0.141201  
         O1        1.0000    0.94050   0.29260   0.43920   Biso      1.000     O          -0.5153260000000001           
         O2        1.0000    0.72240   0.67535   0.15230   Biso      1.000     O          -0.607055           
         O3        1.0000    0.75670   0.29540   0.22830   Biso      1.000     O          -0.542312           
         O4        1.0000    0.80240   0.66270   0.35630   Biso      1.000     O          -0.496001           
         O5        1.0000    0.04620   0.64452   0.19630   Biso      1.000     O          -0.515162           
         O6        1.0000    0.14600   0.57437   0.36460   Biso      1.000     O          -0.520309           
         O7        1.0000    0.12120   0.37990   0.41880   Biso      1.000     O          -0.509716           
         O8        1.0000    0.67340   0.38087   0.06860   Biso      1.000     O          -0.49941599999999997          
         O9        1.0000    0.93270   0.78330   0.52430   Biso      1.000     O          -0.819938           
         O10       1.0000    0.40540   0.96689   0.46170   Biso      1.000     O          -0.5180319999999999           
         O11       1.0000    0.73080   0.12857   0.46890   Biso      1.000     O          -0.240197           
         O12       1.0000    0.74140   0.28460   0.62300   Biso      1.000     O          -0.53064  
         O13       1.0000    0.80030   0.20316   0.79720   Biso      1.000     O          -0.511484           
         O14       1.0000    0.78820   0.89595   0.71520   Biso      1.000     O          -0.5792229999999999           
         O15       1.0000    0.73210   0.91592   0.50720   Biso      1.000     O          -0.53709  
         O16       1.0000    0.46960   0.91547   0.65640   Biso      1.000     O          -0.5586720000000001           
         O17       1.0000    0.38620   0.19100   0.47210   Biso      1.000     O          -0.49568900000000005          
         O18       1.0000    0.77780   0.44390   0.39520   Biso      1.000     O          -0.24442399999999997          
         O19       1.0000    0.56080   0.27480   0.41180   Biso      1.000     O          -0.521705           
         O20       1.0000    0.15440   0.76870   0.38750   Biso      1.000     O          -0.856542           
         O21       1.0000    0.39120   0.76892   0.46760   Biso      1.000     O          -0.861448           
         O22       1.0000    0.27760   0.67535   0.65230   Biso      1.000     O          -0.607051           
         O23       1.0000    0.43920   0.27480   0.91180   Biso      1.000     O          -0.521703           
         O24       1.0000    0.60650   0.80603   0.33910   Biso      1.000     O          -0.837461           
         O25       1.0000    0.22220   0.44390   0.89520   Biso      1.000     O          -0.24442600000000003          
         O26       1.0000    0.24330   0.29540   0.72830   Biso      1.000     O          -0.542315           
         O27       1.0000    0.32660   0.38087   0.56860   Biso      1.000     O          -0.49941899999999995          
         O28       1.0000    0.19760   0.66270   0.85630   Biso      1.000     O          -0.49600600000000006          
         O29       1.0000    0.95380   0.64452   0.69630   Biso      1.000     O          -0.515162           
         O30       1.0000    0.85400   0.57437   0.86460   Biso      1.000     O          -0.5203220000000001           
         O31       1.0000    0.87880   0.37990   0.91880   Biso      1.000     O          -0.509716           
         O32       1.0000    0.05950   0.29260   0.93920   Biso      1.000     O          -0.515323           
         O33       1.0000    0.06730   0.78330   0.02430   Biso      1.000     O          -0.819941           
         O34       1.0000    0.84560   0.76870   0.88750   Biso      1.000     O          -0.856541           
         O35       1.0000    0.26920   0.12857   0.96890   Biso      1.000     O          -0.24019899999999997          
         O36       1.0000    0.25860   0.28460   0.12300   Biso      1.000     O          -0.530644           
         O37       1.0000    0.19970   0.20316   0.29720   Biso      1.000     O          -0.511488           
         O38       1.0000    0.21180   0.89595   0.21520   Biso      1.000     O          -0.579226           
         O39       1.0000    0.26790   0.91592   0.00720   Biso      1.000     O          -0.537094           
         O40       1.0000    0.53040   0.91547   0.15640   Biso      1.000     O          -0.558674           
         O41       1.0000    0.59460   0.96689   0.96170   Biso      1.000     O          -0.5180319999999999           
         O42       1.0000    0.61380   0.19100   0.97210   Biso      1.000     O          -0.49568599999999996          
         O43       1.0000    0.39350   0.80603   0.83910   Biso      1.000     O          -0.83746  
         O44       1.0000    0.60880   0.76892   0.96760   Biso      1.000     O          -0.861452 