
##########################################################################
#               Crystallographic Information Format file
#               Produced by PyCifRW module
#
#  This is a CIF file.  CIF has been adopted by the International
#  Union of Crystallography as the standard for data archiving and
#  transmission.
#
#  For information on this file format, follow the CIF links at
#  http://www.iucr.org
##########################################################################

data_image0

_cell_length_a                          10.0388
_cell_length_b                          14.2291
_cell_length_c                          10.3413
_cell_angle_alpha                       92.449
_cell_angle_beta                        90
_cell_angle_gamma                       90
_symmetry_space_group_name_H-M          'P 1'
_symmetry_int_tables_number             1
loop_
  _symmetry_equiv_pos_as_xyz
         'x, y, z' 
loop_
  _atom_site_label
  _atom_site_occupancy
  _atom_site_fract_x
  _atom_site_fract_y
  _atom_site_fract_z
  _atom_site_thermal_displace_type
  _atom_site_B_iso_or_equiv
  _atom_site_type_symbol
  _atom_site_charge
         C1        1.0000    0.71880   0.36730   0.18460   Biso      1.000     C          0.571191  
         C2        1.0000    0.48970   0.19800   0.94820   Biso      1.000     C          0.568787  
         C3        1.0000    0.53020   0.97380   0.06790   Biso      1.000     C          0.632721  
         C4        1.0000    0.25570   0.94200   0.12320   Biso      1.000     C          0.6582680000000001  
         C5        1.0000    0.22650   0.20990   0.17580   Biso      1.000     C          0.578735  
         C6        1.0000    0.40790   0.10940   0.96570   Biso      1.000     C          0.022851  
         C7        1.0000    0.44460   0.06000   0.09100   Biso      1.000     C          -0.172148           
         C8        1.0000    0.72320   0.45780   0.26920   Biso      1.000     C          0.035933  
         C9        1.0000    0.30790   0.04150   0.15600   Biso      1.000     C          -0.17716600000000002          
         C10       1.0000    0.00120   0.36810   0.91790   Biso      1.000     C          0.569833  
         C11       1.0000    0.94720   0.58160   0.78390   Biso      1.000     C          0.648705  
         C12       1.0000    0.22440   0.62820   0.74330   Biso      1.000     C          0.644718  
         C13       1.0000    0.28120   0.36730   0.68460   Biso      1.000     C          0.571293  
         C14       1.0000    0.08280   0.45760   0.89690   Biso      1.000     C          0.028960000000000003          
         C15       1.0000    0.04580   0.50150   0.76770   Biso      1.000     C          -0.170151           
         C16       1.0000    0.21730   0.11560   0.09720   Biso      1.000     C          0.040556  
         C17       1.0000    0.82130   0.52840   0.20770   Biso      1.000     C          -0.183252           
         C18       1.0000    0.95420   0.50150   0.26770   Biso      1.000     C          -0.169579           
         C19       1.0000    0.91720   0.45760   0.39690   Biso      1.000     C          0.028877999999999997          
         C20       1.0000    0.51030   0.19800   0.44820   Biso      1.000     C          0.5688409999999999  
         C21       1.0000    0.46980   0.97380   0.56790   Biso      1.000     C          0.632817  
         C22       1.0000    0.74430   0.94200   0.62320   Biso      1.000     C          0.658417  
         C23       1.0000    0.17870   0.52840   0.70770   Biso      1.000     C          -0.181706           
         C24       1.0000    0.59210   0.10940   0.46570   Biso      1.000     C          0.022715  
         C25       1.0000    0.77350   0.20990   0.67580   Biso      1.000     C          0.578692  
         C26       1.0000    0.69210   0.04150   0.65600   Biso      1.000     C          -0.177455           
         C27       1.0000    0.78270   0.11560   0.59720   Biso      1.000     C          0.041158999999999994          
         C28       1.0000    0.99880   0.36810   0.41790   Biso      1.000     C          0.5698449999999999  
         C29       1.0000    0.05280   0.58160   0.28390   Biso      1.000     C          0.649216  
         C30       1.0000    0.77560   0.62820   0.24330   Biso      1.000     C          0.645095  
         C31       1.0000    0.55540   0.06000   0.59100   Biso      1.000     C          -0.172156           
         C32       1.0000    0.27680   0.45780   0.76920   Biso      1.000     C          0.035431  
         Cl1       1.0000    0.10399   0.97408   0.51113   Biso      1.000     Cl          -0.500372           
         Cl2       1.0000    0.62501   0.69012   0.65661   Biso      1.000     Cl          -0.633143           
         Cl3       1.0000    0.89601   0.97408   0.01113   Biso      1.000     Cl          -0.500698           
         Cl4       1.0000    0.37499   0.69012   0.15661   Biso      1.000     Cl          -0.632695           
         Cu1       1.0000    0.24699   0.28248   0.92450   Biso      1.000     Cu          0.9225760000000001  
         Cu2       1.0000    0.11337   0.77353   0.20532   Biso      1.000     Cu          0.9420799999999999  
         Cu3       1.0000    0.74228   0.28617   0.93585   Biso      1.000     Cu          0.958572  
         Cu4       1.0000    0.73466   0.87698   0.93944   Biso      1.000     Cu          0.9460799999999999  
         Cu5       1.0000    0.72299   0.66725   0.90975   Biso      1.000     Cu          0.9265469999999999  
         Cu6       1.0000    0.59097   0.78041   0.15767   Biso      1.000     Cu          0.963008  
         Cu7       1.0000    0.76710   0.78686   0.42860   Biso      1.000     Cu          0.9337989999999999  
         Cu8       1.0000    0.25772   0.28617   0.43585   Biso      1.000     Cu          0.958779  
         Cu9       1.0000    0.75301   0.28248   0.42450   Biso      1.000     Cu          0.9210020000000001  
         Cu10      1.0000    0.27701   0.66725   0.40975   Biso      1.000     Cu          0.928376  
         Cu11      1.0000    0.40903   0.78041   0.65767   Biso      1.000     Cu          0.9642209999999999  
         Cu12      1.0000    0.88663   0.77353   0.70532   Biso      1.000     Cu          0.9434389999999999  
         Cu13      1.0000    0.23290   0.78686   0.92860   Biso      1.000     Cu          0.9335450000000001  
         Cu14      1.0000    0.26534   0.87698   0.43944   Biso      1.000     Cu          0.945249  
         H1        1.0000    0.00430   0.45130   0.71030   Biso      1.000     H          0.133919  
         H2        1.0000    0.59300   0.87100   0.35300   Biso      1.000     H          0.390291  
         H3        1.0000    0.36780   0.48600   0.77760   Biso      1.000     H          0.122235  
         H4        1.0000    0.17590   0.51780   0.61150   Biso      1.000     H          0.129856  
         H5        1.0000    0.06270   0.50440   0.96910   Biso      1.000     H          0.109117  
         H6        1.0000    0.52000   0.77700   0.94600   Biso      1.000     H          0.399357  
         H7        1.0000    0.31440   0.05260   0.25190   Biso      1.000     H          0.137006  
         H8        1.0000    0.07500   0.75000   0.43400   Biso      1.000     H          0.398811  
         H9        1.0000    0.12300   0.09290   0.09440   Biso      1.000     H          0.127218  
         H10       1.0000    0.96600   0.82900   0.52800   Biso      1.000     H          0.31940599999999997           
         H11       1.0000    0.57270   0.06470   0.39090   Biso      1.000     H          0.109671  
         H12       1.0000    0.50490   0.10580   0.64830   Biso      1.000     H          0.137667  
         H13       1.0000    0.68560   0.05260   0.75190   Biso      1.000     H          0.136965  
         H14       1.0000    0.93730   0.50440   0.46910   Biso      1.000     H          0.108998  
         H15       1.0000    0.99570   0.45130   0.21030   Biso      1.000     H          0.133449  
         H16       1.0000    0.82410   0.51780   0.11150   Biso      1.000     H          0.12956199999999998           
         H17       1.0000    0.87700   0.09290   0.59440   Biso      1.000     H          0.12714   
         H18       1.0000    0.63220   0.48600   0.27760   Biso      1.000     H          0.12216099999999999           
         H19       1.0000    0.48000   0.77700   0.44600   Biso      1.000     H          0.399086  
         H20       1.0000    0.40700   0.87100   0.85300   Biso      1.000     H          0.39058200000000004           
         H21       1.0000    0.92500   0.75000   0.93400   Biso      1.000     H          0.398915  
         H22       1.0000    0.03400   0.82900   0.02800   Biso      1.000     H          0.3199    
         H23       1.0000    0.42730   0.06470   0.89090   Biso      1.000     H          0.109704  
         H24       1.0000    0.49510   0.10580   0.14830   Biso      1.000     H          0.13776   
         O1        1.0000    0.94190   0.29120   0.43980   Biso      1.000     O          -0.5157729999999999           
         O2        1.0000    0.72000   0.67250   0.15340   Biso      1.000     O          -0.6073029999999999           
         O3        1.0000    0.76050   0.29200   0.22990   Biso      1.000     O          -0.53293  
         O4        1.0000    0.79210   0.65800   0.35710   Biso      1.000     O          -0.48746999999999996          
         O5        1.0000    0.04080   0.64490   0.20320   Biso      1.000     O          -0.51523  
         O6        1.0000    0.13810   0.57710   0.37220   Biso      1.000     O          -0.520008           
         O7        1.0000    0.12210   0.37940   0.41400   Biso      1.000     O          -0.511853           
         O8        1.0000    0.67680   0.37590   0.07020   Biso      1.000     O          -0.509756           
         O9        1.0000    0.92720   0.76750   0.52450   Biso      1.000     O          -0.788466           
         O10       1.0000    0.40610   0.96620   0.46220   Biso      1.000     O          -0.508315           
         O11       1.0000    0.73360   0.12660   0.46800   Biso      1.000     O          -0.245227           
         O12       1.0000    0.74180   0.28320   0.61960   Biso      1.000     O          -0.5290819999999999           
         O13       1.0000    0.79940   0.20360   0.79400   Biso      1.000     O          -0.512529           
         O14       1.0000    0.79180   0.89640   0.71320   Biso      1.000     O          -0.57772  
         O15       1.0000    0.73500   0.91440   0.50590   Biso      1.000     O          -0.545689           
         O16       1.0000    0.46790   0.91580   0.65700   Biso      1.000     O          -0.5596899999999999           
         O17       1.0000    0.38690   0.18940   0.46980   Biso      1.000     O          -0.504111           
         O18       1.0000    0.77730   0.44070   0.39480   Biso      1.000     O          -0.24208400000000002          
         O19       1.0000    0.56350   0.27100   0.40850   Biso      1.000     O          -0.5243329999999999           
         O20       1.0000    0.15200   0.77250   0.38990   Biso      1.000     O          -0.8598540000000001           
         O21       1.0000    0.38940   0.77010   0.47110   Biso      1.000     O          -0.8571270000000001           
         O22       1.0000    0.28000   0.67250   0.65340   Biso      1.000     O          -0.605321           
         O23       1.0000    0.43650   0.27100   0.90850   Biso      1.000     O          -0.522958           
         O24       1.0000    0.60410   0.80520   0.34000   Biso      1.000     O          -0.827527           
         O25       1.0000    0.22270   0.44070   0.89480   Biso      1.000     O          -0.241826           
         O26       1.0000    0.23950   0.29200   0.72990   Biso      1.000     O          -0.532756           
         O27       1.0000    0.32320   0.37590   0.57020   Biso      1.000     O          -0.5099239999999999           
         O28       1.0000    0.20790   0.65800   0.85710   Biso      1.000     O          -0.485368           
         O29       1.0000    0.95920   0.64490   0.70320   Biso      1.000     O          -0.514724           
         O30       1.0000    0.86190   0.57710   0.87220   Biso      1.000     O          -0.518674           
         O31       1.0000    0.87790   0.37940   0.91400   Biso      1.000     O          -0.509153           
         O32       1.0000    0.05810   0.29120   0.93980   Biso      1.000     O          -0.51395  
         O33       1.0000    0.07280   0.76750   0.02450   Biso      1.000     O          -0.785041           
         O34       1.0000    0.84800   0.77250   0.88990   Biso      1.000     O          -0.8604440000000001           
         O35       1.0000    0.26640   0.12660   0.96800   Biso      1.000     O          -0.24573000000000003          
         O36       1.0000    0.25820   0.28320   0.11960   Biso      1.000     O          -0.5290050000000001           
         O37       1.0000    0.20060   0.20360   0.29400   Biso      1.000     O          -0.512439           
         O38       1.0000    0.20820   0.89640   0.21320   Biso      1.000     O          -0.5777329999999999           
         O39       1.0000    0.26500   0.91440   0.00590   Biso      1.000     O          -0.546016           
         O40       1.0000    0.53210   0.91580   0.15700   Biso      1.000     O          -0.5599149999999999           
         O41       1.0000    0.59390   0.96620   0.96220   Biso      1.000     O          -0.508508           
         O42       1.0000    0.61310   0.18940   0.96980   Biso      1.000     O          -0.502236           
         O43       1.0000    0.39590   0.80520   0.84000   Biso      1.000     O          -0.8282709999999999           
         O44       1.0000    0.61060   0.77010   0.97110   Biso      1.000     O          -0.857118 