
##########################################################################
#               Crystallographic Information Format file
#               Produced by PyCifRW module
#
#  This is a CIF file.  CIF has been adopted by the International
#  Union of Crystallography as the standard for data archiving and
#  transmission.
#
#  For information on this file format, follow the CIF links at
#  http://www.iucr.org
##########################################################################

data_image0

_cell_length_a                          9.014
_cell_length_b                          12.273
_cell_length_c                          17.835
_cell_angle_alpha                       90
_cell_angle_beta                        91.02
_cell_angle_gamma                       90
_symmetry_space_group_name_H-M          'P 1'
_symmetry_int_tables_number             1
loop_
  _symmetry_equiv_pos_as_xyz
         'x, y, z' 
loop_
  _atom_site_label
  _atom_site_occupancy
  _atom_site_fract_x
  _atom_site_fract_y
  _atom_site_fract_z
  _atom_site_thermal_displace_type
  _atom_site_B_iso_or_equiv
  _atom_site_type_symbol
  _atom_site_charge
         Ag1       1.0000    0.08766   0.58159   0.24264   Biso      1.000     Ag          0.146729  
         Ag2       1.0000    0.91234   0.08159   0.25736   Biso      1.000     Ag          0.14670899999999998           
         Ag3       1.0000    0.85461   0.12647   0.75522   Biso      1.000     Ag          0.15704   
         Ag4       1.0000    0.14539   0.87353   0.24478   Biso      1.000     Ag          0.157023  
         Ag5       1.0000    0.08766   0.91841   0.74264   Biso      1.000     Ag          0.146704  
         Ag6       1.0000    0.85461   0.37353   0.25522   Biso      1.000     Ag          0.157055  
         Ag7       1.0000    0.91234   0.41841   0.75736   Biso      1.000     Ag          0.14670899999999998           
         Ag8       1.0000    0.14539   0.62647   0.74478   Biso      1.000     Ag          0.157053  
         C1        1.0000    0.19890   0.57460   0.64010   Biso      1.000     C          -0.021222           
         C2        1.0000    0.81320   0.45340   0.65520   Biso      1.000     C          -0.027625999999999998         
         C3        1.0000    0.55510   0.85850   0.99310   Biso      1.000     C          -0.100594           
         C4        1.0000    0.80110   0.42540   0.35990   Biso      1.000     C          -0.021226           
         C5        1.0000    0.99610   0.86600   0.64190   Biso      1.000     C          -0.000878           
         C6        1.0000    0.03650   0.83400   0.34010   Biso      1.000     C          0.001691  
         C7        1.0000    0.55510   0.64150   0.49310   Biso      1.000     C          -0.100609           
         C8        1.0000    0.75340   0.01680   0.50840   Biso      1.000     C          0.086534  
         C9        1.0000    0.18680   0.54660   0.34480   Biso      1.000     C          -0.027607999999999997         
         C10       1.0000    0.60480   0.12060   0.42440   Biso      1.000     C          -0.016434           
         C11       1.0000    0.66970   0.56180   0.90020   Biso      1.000     C          0.07564   
         C12       1.0000    0.66970   0.93820   0.40020   Biso      1.000     C          0.075633  
         C13       1.0000    0.59610   0.46780   0.87850   Biso      1.000     C          -0.134963           
         C14       1.0000    0.60480   0.37940   0.92440   Biso      1.000     C          -0.0164   
         C15       1.0000    0.19890   0.92540   0.14010   Biso      1.000     C          -0.021226           
         C16       1.0000    0.68430   0.38620   0.98970   Biso      1.000     C          -0.11530599999999999          
         C17       1.0000    0.18680   0.95340   0.84480   Biso      1.000     C          -0.027625           
         C18       1.0000    0.99610   0.63400   0.14190   Biso      1.000     C          -0.0008470000000000001        
         C19       1.0000    0.75340   0.48320   0.00840   Biso      1.000     C          0.086549  
         C20       1.0000    0.68430   0.11380   0.48970   Biso      1.000     C          -0.115326           
         C21       1.0000    0.59610   0.03220   0.37850   Biso      1.000     C          -0.134952           
         C22       1.0000    0.03650   0.66600   0.84010   Biso      1.000     C          0.001702  
         C23       1.0000    0.39520   0.62060   0.07560   Biso      1.000     C          -0.016431           
         C24       1.0000    0.96350   0.33400   0.15990   Biso      1.000     C          0.001661  
         C25       1.0000    0.24660   0.51680   0.99160   Biso      1.000     C          0.08653200000000001           
         C26       1.0000    0.39520   0.87940   0.57560   Biso      1.000     C          -0.016427           
         C27       1.0000    0.33030   0.06180   0.59980   Biso      1.000     C          0.07561699999999999           
         C28       1.0000    0.31570   0.61380   0.01030   Biso      1.000     C          -0.115335           
         C29       1.0000    0.00390   0.36600   0.85810   Biso      1.000     C          -0.000892           
         C30       1.0000    0.81320   0.04660   0.15520   Biso      1.000     C          -0.027627           
         C31       1.0000    0.40390   0.96780   0.62150   Biso      1.000     C          -0.13495  
         C32       1.0000    0.44490   0.14150   0.00690   Biso      1.000     C          -0.100637           
         C33       1.0000    0.40390   0.53220   0.12150   Biso      1.000     C          -0.134968           
         C34       1.0000    0.80110   0.07460   0.85990   Biso      1.000     C          -0.021231           
         C35       1.0000    0.33030   0.43820   0.09980   Biso      1.000     C          0.075627  
         C36       1.0000    0.24660   0.98320   0.49160   Biso      1.000     C          0.086535  
         C37       1.0000    0.44490   0.35850   0.50690   Biso      1.000     C          -0.10062  
         C38       1.0000    0.96350   0.16600   0.65990   Biso      1.000     C          0.001678  
         C39       1.0000    0.00390   0.13400   0.35810   Biso      1.000     C          -0.0008810000000000001        
         C40       1.0000    0.31570   0.88620   0.51030   Biso      1.000     C          -0.115325           
         Cu1       1.0000    0.84871   0.71311   0.98521   Biso      1.000     Cu          0.7641399999999999  
         Cu2       1.0000    0.15129   0.28689   0.01479   Biso      1.000     Cu          0.764117  
         Cu3       1.0000    0.37562   0.94375   0.99326   Biso      1.000     Cu          0.352304  
         Cu4       1.0000    0.15129   0.21311   0.51479   Biso      1.000     Cu          0.7641060000000001  
         Cu5       1.0000    0.62438   0.05625   0.00674   Biso      1.000     Cu          0.352302  
         Cu6       1.0000    0.37562   0.55625   0.49326   Biso      1.000     Cu          0.352306  
         Cu7       1.0000    0.84871   0.78689   0.48521   Biso      1.000     Cu          0.76415   
         Cu8       1.0000    0.62438   0.44375   0.50674   Biso      1.000     Cu          0.35229   
         H1        1.0000    0.54210   0.46500   0.83360   Biso      1.000     H          0.128935  
         H2        1.0000    0.95510   0.34720   0.49050   Biso      1.000     H          0.373188  
         H3        1.0000    0.19250   0.98750   0.44690   Biso      1.000     H          0.093015  
         H4        1.0000    0.80750   0.48750   0.05310   Biso      1.000     H          0.093025  
         H5        1.0000    0.33400   0.12170   0.63170   Biso      1.000     H          0.09744   
         H6        1.0000    0.30790   0.82630   0.47850   Biso      1.000     H          0.120379  
         H7        1.0000    0.94260   0.89470   0.95470   Biso      1.000     H          0.374827  
         H8        1.0000    0.90640   0.89510   0.03380   Biso      1.000     H          0.374709  
         H9        1.0000    0.04490   0.84720   0.00950   Biso      1.000     H          0.373194  
         H10       1.0000    0.69210   0.32630   0.02150   Biso      1.000     H          0.120399  
         H11       1.0000    0.45790   0.96500   0.66640   Biso      1.000     H          0.128893  
         H12       1.0000    0.55680   0.31490   0.91120   Biso      1.000     H          0.117691  
         H13       1.0000    0.44320   0.81490   0.58880   Biso      1.000     H          0.11765899999999999           
         H14       1.0000    0.66600   0.62170   0.86830   Biso      1.000     H          0.097442  
         H15       1.0000    0.94260   0.60530   0.45470   Biso      1.000     H          0.37482   
         H16       1.0000    0.05740   0.39470   0.54530   Biso      1.000     H          0.374817  
         H17       1.0000    0.09360   0.10490   0.96620   Biso      1.000     H          0.374685  
         H18       1.0000    0.05740   0.10530   0.04530   Biso      1.000     H          0.37480399999999997           
         H19       1.0000    0.33400   0.37830   0.13170   Biso      1.000     H          0.097447  
         H20       1.0000    0.45790   0.53500   0.16640   Biso      1.000     H          0.128919  
         H21       1.0000    0.44320   0.68510   0.08880   Biso      1.000     H          0.117676  
         H22       1.0000    0.30790   0.67370   0.97850   Biso      1.000     H          0.12038499999999999           
         H23       1.0000    0.19250   0.51250   0.94690   Biso      1.000     H          0.093013  
         H24       1.0000    0.80750   0.01250   0.55310   Biso      1.000     H          0.093013  
         H25       1.0000    0.55680   0.18510   0.41120   Biso      1.000     H          0.117673  
         H26       1.0000    0.69210   0.17370   0.52150   Biso      1.000     H          0.12038099999999999           
         H27       1.0000    0.66600   0.87830   0.36830   Biso      1.000     H          0.09740599999999999           
         H28       1.0000    0.04490   0.65280   0.50950   Biso      1.000     H          0.37319   
         H29       1.0000    0.90640   0.60490   0.53380   Biso      1.000     H          0.374701  
         H30       1.0000    0.09360   0.39510   0.46620   Biso      1.000     H          0.3747    
         H31       1.0000    0.54210   0.03500   0.33360   Biso      1.000     H          0.128896  
         H32       1.0000    0.95510   0.15280   0.99050   Biso      1.000     H          0.373173  
         N1        1.0000    0.34900   0.20380   0.00750   Biso      1.000     N          -0.358459           
         N2        1.0000    0.34900   0.29620   0.50750   Biso      1.000     N          -0.358435           
         N3        1.0000    0.02760   0.31370   0.10790   Biso      1.000     N          -0.362245           
         N4        1.0000    0.25500   0.42930   0.03550   Biso      1.000     N          -0.204177           
         N5        1.0000    0.05890   0.33920   0.91320   Biso      1.000     N          -0.37305900000000003          
         N6        1.0000    0.75100   0.03900   0.09850   Biso      1.000     N          -0.3226   
         N7        1.0000    0.25500   0.07070   0.53550   Biso      1.000     N          -0.204163           
         N8        1.0000    0.05030   0.14240   0.00250   Biso      1.000     N          -0.910708           
         N9        1.0000    0.05030   0.35760   0.50250   Biso      1.000     N          -0.910702           
         N10       1.0000    0.75050   0.05850   0.91630   Biso      1.000     N          -0.315922           
         N11       1.0000    0.97240   0.68630   0.89210   Biso      1.000     N          -0.36223  
         N12       1.0000    0.05890   0.16080   0.41320   Biso      1.000     N          -0.373057           
         N13       1.0000    0.74500   0.57070   0.96450   Biso      1.000     N          -0.20416800000000002          
         N14       1.0000    0.94110   0.66080   0.08680   Biso      1.000     N          -0.373046           
         N15       1.0000    0.24900   0.96100   0.90150   Biso      1.000     N          -0.322588           
         N16       1.0000    0.24950   0.94150   0.08370   Biso      1.000     N          -0.315915           
         N17       1.0000    0.94970   0.64240   0.49750   Biso      1.000     N          -0.9106879999999999           
         N18       1.0000    0.94970   0.85760   0.99750   Biso      1.000     N          -0.9106989999999999           
         N19       1.0000    0.02760   0.18630   0.60790   Biso      1.000     N          -0.362235           
         N20       1.0000    0.74500   0.92930   0.46450   Biso      1.000     N          -0.204163           
         N21       1.0000    0.97240   0.81370   0.39210   Biso      1.000     N          -0.36225300000000005          
         N22       1.0000    0.94110   0.83920   0.58680   Biso      1.000     N          -0.37306999999999996          
         N23       1.0000    0.24900   0.53900   0.40150   Biso      1.000     N          -0.322587           
         N24       1.0000    0.75050   0.44150   0.41630   Biso      1.000     N          -0.315911           
         N25       1.0000    0.24950   0.55850   0.58370   Biso      1.000     N          -0.315914           
         N26       1.0000    0.65100   0.79620   0.99250   Biso      1.000     N          -0.358441           
         N27       1.0000    0.65100   0.70380   0.49250   Biso      1.000     N          -0.358444           
         N28       1.0000    0.75100   0.46100   0.59850   Biso      1.000     N          -0.322581 