
##########################################################################
#               Crystallographic Information Format file
#               Produced by PyCifRW module
#
#  This is a CIF file.  CIF has been adopted by the International
#  Union of Crystallography as the standard for data archiving and
#  transmission.
#
#  For information on this file format, follow the CIF links at
#  http://www.iucr.org
##########################################################################

data_image0

_cell_length_a                          6.4399
_cell_length_b                          17.023
_cell_length_c                          23.833
_cell_angle_alpha                       90
_cell_angle_beta                        90.792
_cell_angle_gamma                       90
_symmetry_space_group_name_H-M          'P 1'
_symmetry_int_tables_number             1
loop_
  _symmetry_equiv_pos_as_xyz
         'x, y, z' 
loop_
  _atom_site_label
  _atom_site_occupancy
  _atom_site_fract_x
  _atom_site_fract_y
  _atom_site_fract_z
  _atom_site_thermal_displace_type
  _atom_site_B_iso_or_equiv
  _atom_site_type_symbol
  _atom_site_charge
         C1        1.0000    0.67720   0.29910   0.71340   Biso      1.000     C          0.121654  
         C2        1.0000    0.13290   0.66300   0.29700   Biso      1.000     C          -0.18749000000000002          
         C3        1.0000    0.64430   0.25150   0.26370   Biso      1.000     C          0.109695  
         C4        1.0000    0.86710   0.33700   0.70300   Biso      1.000     C          -0.18749000000000002          
         C5        1.0000    0.32280   0.70090   0.28660   Biso      1.000     C          0.121654  
         C6        1.0000    0.88960   0.38240   0.65690   Biso      1.000     C          -0.059317999999999996         
         C7        1.0000    0.64430   0.24850   0.76370   Biso      1.000     C          0.109695  
         C8        1.0000    0.80520   0.20170   0.78330   Biso      1.000     C          -0.282976           
         C9        1.0000    0.48440   0.68940   0.32450   Biso      1.000     C          -0.294071           
         C10       1.0000    0.77520   0.15250   0.82910   Biso      1.000     C          0.339316  
         C11       1.0000    0.58890   0.15050   0.85680   Biso      1.000     C          -0.188029           
         C12       1.0000    0.42850   0.19830   0.83720   Biso      1.000     C          -0.057704           
         C13       1.0000    0.46610   0.64570   0.37370   Biso      1.000     C          0.41753100000000004           
         C14       1.0000    0.45850   0.24830   0.79110   Biso      1.000     C          -0.18975699999999998          
         C15       1.0000    0.51560   0.31060   0.67550   Biso      1.000     C          -0.294071           
         C16       1.0000    0.27050   0.60750   0.38330   Biso      1.000     C          -0.210781           
         C17       1.0000    0.23290   0.56120   0.43230   Biso      1.000     C          0.659358  
         C18       1.0000    0.55320   0.40040   0.40670   Biso      1.000     C          0.6774560000000001  
         C19       1.0000    0.45850   0.25170   0.29110   Biso      1.000     C          -0.189756           
         C20       1.0000    0.76710   0.06120   0.06770   Biso      1.000     C          0.659358  
         C21       1.0000    0.72950   0.10750   0.11670   Biso      1.000     C          -0.210781           
         C22       1.0000    0.53390   0.14570   0.12630   Biso      1.000     C          0.41753100000000004           
         C23       1.0000    0.51560   0.18940   0.17550   Biso      1.000     C          -0.29407300000000003          
         C24       1.0000    0.42850   0.30170   0.33720   Biso      1.000     C          -0.05770499999999999          
         C25       1.0000    0.67720   0.20090   0.21340   Biso      1.000     C          0.121656  
         C26       1.0000    0.86710   0.16300   0.20300   Biso      1.000     C          -0.18749000000000002          
         C27       1.0000    0.58890   0.34950   0.35680   Biso      1.000     C          -0.188028           
         C28       1.0000    0.88960   0.11760   0.15690   Biso      1.000     C          -0.059316999999999995         
         C29       1.0000    0.77520   0.34750   0.32910   Biso      1.000     C          0.339314  
         C30       1.0000    0.55320   0.09960   0.90670   Biso      1.000     C          0.6774560000000001  
         C31       1.0000    0.53390   0.35430   0.62630   Biso      1.000     C          0.41753100000000004           
         C32       1.0000    0.80520   0.29830   0.28330   Biso      1.000     C          -0.282974           
         C33       1.0000    0.76710   0.43880   0.56770   Biso      1.000     C          0.659358  
         C34       1.0000    0.11040   0.88240   0.84310   Biso      1.000     C          -0.059336           
         C35       1.0000    0.19480   0.70170   0.71670   Biso      1.000     C          -0.282978           
         C36       1.0000    0.13290   0.83700   0.79700   Biso      1.000     C          -0.187472           
         C37       1.0000    0.72950   0.39250   0.61670   Biso      1.000     C          -0.210781           
         C38       1.0000    0.32280   0.79910   0.78660   Biso      1.000     C          0.121652  
         C39       1.0000    0.22480   0.65250   0.67090   Biso      1.000     C          0.339317  
         C40       1.0000    0.41110   0.65050   0.64320   Biso      1.000     C          -0.188029           
         C41       1.0000    0.57150   0.69830   0.66280   Biso      1.000     C          -0.057703           
         C42       1.0000    0.57150   0.80170   0.16280   Biso      1.000     C          -0.05770499999999999          
         C43       1.0000    0.54150   0.74830   0.70890   Biso      1.000     C          -0.18976400000000002          
         C44       1.0000    0.41110   0.84950   0.14320   Biso      1.000     C          -0.188028           
         C45       1.0000    0.44680   0.59960   0.59330   Biso      1.000     C          0.6774560000000001  
         C46       1.0000    0.22480   0.84750   0.17090   Biso      1.000     C          0.33931500000000003           
         C47       1.0000    0.44680   0.90040   0.09330   Biso      1.000     C          0.6774560000000001  
         C48       1.0000    0.19480   0.79830   0.21670   Biso      1.000     C          -0.282976           
         C49       1.0000    0.48440   0.81060   0.82450   Biso      1.000     C          -0.294071           
         C50       1.0000    0.35570   0.75150   0.23630   Biso      1.000     C          0.109697  
         C51       1.0000    0.46610   0.85430   0.87370   Biso      1.000     C          0.41753   
         C52       1.0000    0.11040   0.61760   0.34310   Biso      1.000     C          -0.059316999999999995         
         C53       1.0000    0.27050   0.89250   0.88330   Biso      1.000     C          -0.210779           
         C54       1.0000    0.23290   0.93880   0.93230   Biso      1.000     C          0.659358  
         C55       1.0000    0.35570   0.74850   0.73630   Biso      1.000     C          0.109704  
         C56       1.0000    0.54150   0.75170   0.20890   Biso      1.000     C          -0.18975699999999998          
         Gd1       1.0000    0.26297   0.43688   0.52216   Biso      1.000     Gd          2.0434330000000003  
         Gd2       1.0000    0.73703   0.56312   0.47784   Biso      1.000     Gd          2.0434330000000003  
         Gd3       1.0000    0.73703   0.93688   0.97784   Biso      1.000     Gd          2.0434330000000003  
         Gd4       1.0000    0.26297   0.06312   0.02216   Biso      1.000     Gd          2.0434330000000003  
         H1        1.0000    0.30060   0.30270   0.35490   Biso      1.000     H          0.118591  
         H2        1.0000    0.35180   0.21870   0.27900   Biso      1.000     H          0.118112  
         H3        1.0000    0.64820   0.71870   0.22100   Biso      1.000     H          0.118112  
         H4        1.0000    0.90700   0.42500   0.36880   Biso      1.000     H          0.39781   
         H5        1.0000    0.69940   0.80270   0.14510   Biso      1.000     H          0.118591  
         H6        1.0000    0.06660   0.79700   0.23420   Biso      1.000     H          0.14489100000000002           
         H7        1.0000    0.61230   0.71210   0.31670   Biso      1.000     H          0.139462  
         H8        1.0000    0.98450   0.59210   0.34850   Biso      1.000     H          0.11363499999999999           
         H9        1.0000    0.02200   0.66930   0.27200   Biso      1.000     H          0.11710699999999999           
         H10       1.0000    0.90700   0.07500   0.86880   Biso      1.000     H          0.397811  
         H11       1.0000    0.01550   0.09210   0.15150   Biso      1.000     H          0.11363499999999999           
         H12       1.0000    0.61230   0.78790   0.81670   Biso      1.000     H          0.139462  
         H13       1.0000    0.02200   0.83070   0.77200   Biso      1.000     H          0.11710599999999999           
         H14       1.0000    0.98450   0.90790   0.84850   Biso      1.000     H          0.11363599999999999           
         H15       1.0000    0.06660   0.70300   0.73420   Biso      1.000     H          0.14489100000000002           
         H16       1.0000    0.69940   0.69730   0.64510   Biso      1.000     H          0.118591  
         H17       1.0000    0.64820   0.78130   0.72100   Biso      1.000     H          0.11811300000000001           
         H18       1.0000    0.09300   0.57500   0.63120   Biso      1.000     H          0.39781   
         H19       1.0000    0.38770   0.28790   0.68330   Biso      1.000     H          0.139462  
         H20       1.0000    0.93340   0.29700   0.26580   Biso      1.000     H          0.14489100000000002           
         H21       1.0000    0.01550   0.40790   0.65150   Biso      1.000     H          0.11363499999999999           
         H22       1.0000    0.93340   0.20300   0.76580   Biso      1.000     H          0.14489100000000002           
         H23       1.0000    0.30060   0.19730   0.85490   Biso      1.000     H          0.118591  
         H24       1.0000    0.35180   0.28130   0.77900   Biso      1.000     H          0.118112  
         H25       1.0000    0.97800   0.33070   0.72800   Biso      1.000     H          0.11710699999999999           
         H26       1.0000    0.09300   0.92500   0.13120   Biso      1.000     H          0.39781   
         H27       1.0000    0.97800   0.16930   0.22800   Biso      1.000     H          0.11710699999999999           
         H28       1.0000    0.38770   0.21210   0.18330   Biso      1.000     H          0.139462  
         O1        1.0000    0.62870   0.63890   0.40770   Biso      1.000     O          -0.70339  
         O2        1.0000    0.31930   0.95760   0.08640   Biso      1.000     O          -0.6600189999999999           
         O3        1.0000    0.60290   0.88780   0.06270   Biso      1.000     O          -0.668922           
         O4        1.0000    0.37550   0.55090   0.46970   Biso      1.000     O          -0.750616           
         O5        1.0000    0.06090   0.52510   0.44030   Biso      1.000     O          -0.7552989999999999           
         O6        1.0000    0.05770   0.89420   0.15570   Biso      1.000     O          -0.509679           
         O7        1.0000    0.94230   0.10580   0.84430   Biso      1.000     O          -0.509679           
         O8        1.0000    0.37130   0.36110   0.59230   Biso      1.000     O          -0.70339  
         O9        1.0000    0.68070   0.04240   0.91360   Biso      1.000     O          -0.6600189999999999           
         O10       1.0000    0.62450   0.44910   0.53030   Biso      1.000     O          -0.750616           
         O11       1.0000    0.93910   0.47490   0.55970   Biso      1.000     O          -0.7552989999999999           
         O12       1.0000    0.60290   0.61220   0.56270   Biso      1.000     O          -0.668922           
         O13       1.0000    0.31930   0.54240   0.58640   Biso      1.000     O          -0.6600189999999999           
         O14       1.0000    0.62870   0.86110   0.90770   Biso      1.000     O          -0.70339  
         O15       1.0000    0.05770   0.60580   0.65570   Biso      1.000     O          -0.509679           
         O16       1.0000    0.93910   0.02510   0.05970   Biso      1.000     O          -0.7552989999999999           
         O17       1.0000    0.62450   0.05090   0.03030   Biso      1.000     O          -0.750616           
         O18       1.0000    0.39710   0.38780   0.43730   Biso      1.000     O          -0.668922           
         O19       1.0000    0.68070   0.45760   0.41360   Biso      1.000     O          -0.6600189999999999           
         O20       1.0000    0.37130   0.13890   0.09230   Biso      1.000     O          -0.70339  
         O21       1.0000    0.94230   0.39420   0.34430   Biso      1.000     O          -0.509679           
         O22       1.0000    0.39710   0.11220   0.93730   Biso      1.000     O          -0.668922           
         O23       1.0000    0.37550   0.94910   0.96970   Biso      1.000     O          -0.750616           
         O24       1.0000    0.06090   0.97490   0.94030   Biso      1.000     O          -0.7552989999999999 