
##########################################################################
#               Crystallographic Information Format file
#               Produced by PyCifRW module
#
#  This is a CIF file.  CIF has been adopted by the International
#  Union of Crystallography as the standard for data archiving and
#  transmission.
#
#  For information on this file format, follow the CIF links at
#  http://www.iucr.org
##########################################################################

data_image0

_cell_length_a                          6.3462
_cell_length_b                          16.58
_cell_length_c                          24.018
_cell_angle_alpha                       90
_cell_angle_beta                        90.683
_cell_angle_gamma                       90
_symmetry_space_group_name_H-M          'P 1'
_symmetry_int_tables_number             1
loop_
  _symmetry_equiv_pos_as_xyz
         'x, y, z' 
loop_
  _atom_site_label
  _atom_site_occupancy
  _atom_site_fract_x
  _atom_site_fract_y
  _atom_site_fract_z
  _atom_site_thermal_displace_type
  _atom_site_B_iso_or_equiv
  _atom_site_type_symbol
  _atom_site_charge
         C1        1.0000    0.66740   0.31100   0.71770   Biso      1.000     C          0.116988  
         C2        1.0000    0.13980   0.64970   0.29240   Biso      1.000     C          -0.187188           
         C3        1.0000    0.64070   0.23850   0.26870   Biso      1.000     C          0.108756  
         C4        1.0000    0.86020   0.35030   0.70760   Biso      1.000     C          -0.187188           
         C5        1.0000    0.33260   0.68900   0.28230   Biso      1.000     C          0.116989  
         C6        1.0000    0.88630   0.39280   0.65960   Biso      1.000     C          -0.057718           
         C7        1.0000    0.64070   0.26150   0.76870   Biso      1.000     C          0.108756  
         C8        1.0000    0.80510   0.21330   0.78870   Biso      1.000     C          -0.286666           
         C9        1.0000    0.49390   0.68220   0.32080   Biso      1.000     C          -0.283064           
         C10       1.0000    0.77750   0.16240   0.83330   Biso      1.000     C          0.338272  
         C11       1.0000    0.58250   0.15960   0.86140   Biso      1.000     C          -0.193411           
         C12       1.0000    0.42230   0.20950   0.84180   Biso      1.000     C          -0.051307           
         C13       1.0000    0.47110   0.63850   0.37130   Biso      1.000     C          0.412507  
         C14       1.0000    0.44910   0.26010   0.79650   Biso      1.000     C          -0.190163           
         C15       1.0000    0.50610   0.31780   0.67920   Biso      1.000     C          -0.283064           
         C16       1.0000    0.27320   0.60090   0.38120   Biso      1.000     C          -0.208431           
         C17       1.0000    0.23280   0.55590   0.43220   Biso      1.000     C          0.656707  
         C18       1.0000    0.54830   0.39560   0.40880   Biso      1.000     C          0.680769  
         C19       1.0000    0.44910   0.23990   0.29650   Biso      1.000     C          -0.190163           
         C20       1.0000    0.76720   0.05590   0.06780   Biso      1.000     C          0.656706  
         C21       1.0000    0.72680   0.10090   0.11880   Biso      1.000     C          -0.208431           
         C22       1.0000    0.52890   0.13850   0.12870   Biso      1.000     C          0.412507  
         C23       1.0000    0.50610   0.18220   0.17920   Biso      1.000     C          -0.283067           
         C24       1.0000    0.42230   0.29050   0.34180   Biso      1.000     C          -0.051306           
         C25       1.0000    0.66740   0.18900   0.21770   Biso      1.000     C          0.116992  
         C26       1.0000    0.86020   0.14970   0.20760   Biso      1.000     C          -0.187189           
         C27       1.0000    0.58250   0.34040   0.36140   Biso      1.000     C          -0.193411           
         C28       1.0000    0.88630   0.10720   0.15960   Biso      1.000     C          -0.057718           
         C29       1.0000    0.77750   0.33760   0.33330   Biso      1.000     C          0.33827   
         C30       1.0000    0.54830   0.10440   0.90880   Biso      1.000     C          0.680769  
         C31       1.0000    0.52890   0.36150   0.62870   Biso      1.000     C          0.412507  
         C32       1.0000    0.80510   0.28670   0.28870   Biso      1.000     C          -0.286664           
         C33       1.0000    0.76720   0.44410   0.56780   Biso      1.000     C          0.656707  
         C34       1.0000    0.11370   0.89280   0.84040   Biso      1.000     C          -0.057731           
         C35       1.0000    0.19490   0.71330   0.71130   Biso      1.000     C          -0.286666           
         C36       1.0000    0.13980   0.85030   0.79240   Biso      1.000     C          -0.187176           
         C37       1.0000    0.72680   0.39910   0.61880   Biso      1.000     C          -0.208431           
         C38       1.0000    0.33260   0.81100   0.78230   Biso      1.000     C          0.116987  
         C39       1.0000    0.22250   0.66240   0.66670   Biso      1.000     C          0.338272  
         C40       1.0000    0.41750   0.65960   0.63860   Biso      1.000     C          -0.193411           
         C41       1.0000    0.57770   0.70950   0.65820   Biso      1.000     C          -0.051307           
         C42       1.0000    0.57770   0.79050   0.15820   Biso      1.000     C          -0.051306           
         C43       1.0000    0.55090   0.76010   0.70350   Biso      1.000     C          -0.190163           
         C44       1.0000    0.41750   0.84040   0.13860   Biso      1.000     C          -0.193411           
         C45       1.0000    0.45170   0.60440   0.59120   Biso      1.000     C          0.680769  
         C46       1.0000    0.22250   0.83760   0.16670   Biso      1.000     C          0.33827   
         C47       1.0000    0.45170   0.89560   0.09120   Biso      1.000     C          0.680769  
         C48       1.0000    0.19490   0.78670   0.21130   Biso      1.000     C          -0.286664           
         C49       1.0000    0.49390   0.81780   0.82080   Biso      1.000     C          -0.283064           
         C50       1.0000    0.35930   0.73850   0.23130   Biso      1.000     C          0.108756  
         C51       1.0000    0.47110   0.86150   0.87130   Biso      1.000     C          0.412506  
         C52       1.0000    0.11370   0.60720   0.34040   Biso      1.000     C          -0.057718           
         C53       1.0000    0.27320   0.89910   0.88120   Biso      1.000     C          -0.20843  
         C54       1.0000    0.23280   0.94410   0.93220   Biso      1.000     C          0.656707  
         C55       1.0000    0.35930   0.76150   0.73130   Biso      1.000     C          0.108756  
         C56       1.0000    0.55090   0.73990   0.20350   Biso      1.000     C          -0.190163           
         Dy1       1.0000    0.26239   0.43783   0.52321   Biso      1.000     Dy          2.073778  
         Dy2       1.0000    0.73761   0.56217   0.47679   Biso      1.000     Dy          2.073778  
         Dy3       1.0000    0.73761   0.93783   0.97679   Biso      1.000     Dy          2.073778  
         Dy4       1.0000    0.26239   0.06217   0.02321   Biso      1.000     Dy          2.073778  
         H1        1.0000    0.29030   0.29110   0.36010   Biso      1.000     H          0.116984  
         H2        1.0000    0.33670   0.20610   0.28440   Biso      1.000     H          0.116475  
         H3        1.0000    0.66330   0.70610   0.21560   Biso      1.000     H          0.116475  
         H4        1.0000    0.90570   0.41800   0.37300   Biso      1.000     H          0.395479  
         H5        1.0000    0.70970   0.79110   0.13990   Biso      1.000     H          0.116984  
         H6        1.0000    0.06160   0.78430   0.22880   Biso      1.000     H          0.14256   
         H7        1.0000    0.62490   0.70750   0.31340   Biso      1.000     H          0.139715  
         H8        1.0000    0.98300   0.58090   0.34640   Biso      1.000     H          0.112972  
         H9        1.0000    0.02810   0.65300   0.26580   Biso      1.000     H          0.117557  
         H10       1.0000    0.90570   0.08200   0.87300   Biso      1.000     H          0.395479  
         H11       1.0000    0.01700   0.08090   0.15360   Biso      1.000     H          0.112972  
         H12       1.0000    0.62490   0.79250   0.81340   Biso      1.000     H          0.139715  
         H13       1.0000    0.02810   0.84700   0.76580   Biso      1.000     H          0.117556  
         H14       1.0000    0.98300   0.91910   0.84640   Biso      1.000     H          0.112973  
         H15       1.0000    0.06160   0.71570   0.72880   Biso      1.000     H          0.14256   
         H16       1.0000    0.70970   0.70890   0.63990   Biso      1.000     H          0.116984  
         H17       1.0000    0.66330   0.79390   0.71560   Biso      1.000     H          0.116475  
         H18       1.0000    0.09430   0.58200   0.62700   Biso      1.000     H          0.395479  
         H19       1.0000    0.37510   0.29250   0.68660   Biso      1.000     H          0.139715  
         H20       1.0000    0.93840   0.28430   0.27120   Biso      1.000     H          0.14256   
         H21       1.0000    0.01700   0.41910   0.65360   Biso      1.000     H          0.112972  
         H22       1.0000    0.93840   0.21570   0.77120   Biso      1.000     H          0.14256   
         H23       1.0000    0.29030   0.20890   0.86010   Biso      1.000     H          0.116984  
         H24       1.0000    0.33670   0.29390   0.78440   Biso      1.000     H          0.116475  
         H25       1.0000    0.97190   0.34700   0.73420   Biso      1.000     H          0.117557  
         H26       1.0000    0.09430   0.91800   0.12700   Biso      1.000     H          0.395479  
         H27       1.0000    0.97190   0.15300   0.23420   Biso      1.000     H          0.117557  
         H28       1.0000    0.37510   0.20750   0.18660   Biso      1.000     H          0.139715  
         O1        1.0000    0.63390   0.63670   0.40640   Biso      1.000     O          -0.714458           
         O2        1.0000    0.32290   0.95360   0.08470   Biso      1.000     O          -0.661065           
         O3        1.0000    0.60930   0.88320   0.05970   Biso      1.000     O          -0.686731           
         O4        1.0000    0.37280   0.55080   0.47060   Biso      1.000     O          -0.756213           
         O5        1.0000    0.05940   0.51900   0.44030   Biso      1.000     O          -0.759646           
         O6        1.0000    0.05580   0.88490   0.15130   Biso      1.000     O          -0.493458           
         O7        1.0000    0.94420   0.11510   0.84870   Biso      1.000     O          -0.493458           
         O8        1.0000    0.36610   0.36330   0.59360   Biso      1.000     O          -0.714458           
         O9        1.0000    0.67710   0.04640   0.91530   Biso      1.000     O          -0.661065           
         O10       1.0000    0.62720   0.44920   0.52940   Biso      1.000     O          -0.756213           
         O11       1.0000    0.94060   0.48100   0.55970   Biso      1.000     O          -0.759646           
         O12       1.0000    0.60930   0.61680   0.55970   Biso      1.000     O          -0.686731           
         O13       1.0000    0.32290   0.54640   0.58470   Biso      1.000     O          -0.661065           
         O14       1.0000    0.63390   0.86330   0.90640   Biso      1.000     O          -0.714458           
         O15       1.0000    0.05580   0.61510   0.65130   Biso      1.000     O          -0.493458           
         O16       1.0000    0.94060   0.01900   0.05970   Biso      1.000     O          -0.759646           
         O17       1.0000    0.62720   0.05080   0.02940   Biso      1.000     O          -0.756213           
         O18       1.0000    0.39070   0.38320   0.44030   Biso      1.000     O          -0.686731           
         O19       1.0000    0.67710   0.45360   0.41530   Biso      1.000     O          -0.661065           
         O20       1.0000    0.36610   0.13670   0.09360   Biso      1.000     O          -0.714458           
         O21       1.0000    0.94420   0.38490   0.34870   Biso      1.000     O          -0.493458           
         O22       1.0000    0.39070   0.11680   0.94030   Biso      1.000     O          -0.686731           
         O23       1.0000    0.37280   0.94920   0.97060   Biso      1.000     O          -0.756213           
         O24       1.0000    0.05940   0.98100   0.94030   Biso      1.000     O          -0.759646 