
##########################################################################
#               Crystallographic Information Format file
#               Produced by PyCifRW module
#
#  This is a CIF file.  CIF has been adopted by the International
#  Union of Crystallography as the standard for data archiving and
#  transmission.
#
#  For information on this file format, follow the CIF links at
#  http://www.iucr.org
##########################################################################

data_image0

_cell_length_a                          7.5764
_cell_length_b                          14.12
_cell_length_c                          15.795
_cell_angle_alpha                       71.81
_cell_angle_beta                        87.78
_cell_angle_gamma                       79.38
_symmetry_space_group_name_H-M          'P 1'
_symmetry_int_tables_number             1
loop_
  _symmetry_equiv_pos_as_xyz
         'x, y, z' 
loop_
  _atom_site_label
  _atom_site_occupancy
  _atom_site_fract_x
  _atom_site_fract_y
  _atom_site_fract_z
  _atom_site_thermal_displace_type
  _atom_site_B_iso_or_equiv
  _atom_site_type_symbol
  _atom_site_charge
         C1        1.0000    0.75950   0.82480   0.50380   Biso      1.000     C          -0.093066           
         C2        1.0000    0.29110   0.10730   0.37590   Biso      1.000     C          -0.167139           
         C3        1.0000    0.63370   0.49560   0.32240   Biso      1.000     C          -0.06436499999999999          
         C4        1.0000    0.18130   0.19030   0.32370   Biso      1.000     C          -0.075061           
         C5        1.0000    0.56960   0.43610   0.39730   Biso      1.000     C          -0.115094           
         C6        1.0000    0.10320   0.26480   0.35340   Biso      1.000     C          -0.087092           
         C7        1.0000    0.55360   0.33740   0.40910   Biso      1.000     C          -0.054338           
         C8        1.0000    0.12980   0.25890   0.44120   Biso      1.000     C          -0.10475699999999999          
         C9        1.0000    0.60860   0.29860   0.34240   Biso      1.000     C          -0.083729           
         C10       1.0000    0.24050   0.17520   0.49620   Biso      1.000     C          -0.09306299999999999          
         C11       1.0000    0.27590   0.17330   0.58840   Biso      1.000     C          0.640755  
         C12       1.0000    0.53800   0.51770   0.96250   Biso      1.000     C          -0.127653           
         C13       1.0000    0.67500   0.35530   0.26540   Biso      1.000     C          -0.171415           
         C14       1.0000    0.65230   0.46070   0.91190   Biso      1.000     C          0.168465  
         C15       1.0000    0.68180   0.35550   0.93790   Biso      1.000     C          -0.175618           
         C16       1.0000    0.32250   0.10150   0.46160   Biso      1.000     C          0.149977  
         C17       1.0000    0.68720   0.45360   0.25510   Biso      1.000     C          0.136297  
         C18       1.0000    0.78230   0.65150   0.07460   Biso      1.000     C          0.12895399999999999           
         C19       1.0000    0.83150   0.45530   0.78770   Biso      1.000     C          0.099595  
         C20       1.0000    0.86880   0.60890   0.01500   Biso      1.000     C          -0.162972           
         C21       1.0000    0.72730   0.50810   0.83630   Biso      1.000     C          -0.185907           
         C22       1.0000    0.93090   0.66900   0.93700   Biso      1.000     C          -0.095064           
         C23       1.0000    0.89780   0.77130   0.91870   Biso      1.000     C          -0.06990299999999999          
         C24       1.0000    0.81020   0.81470   0.97670   Biso      1.000     C          -0.10629300000000001          
         C25       1.0000    0.27270   0.49190   0.16370   Biso      1.000     C          -0.185952           
         C26       1.0000    0.75560   0.75750   0.05420   Biso      1.000     C          -0.065901           
         C27       1.0000    0.16850   0.54470   0.21230   Biso      1.000     C          0.099611  
         C28       1.0000    0.66030   0.80170   0.11890   Biso      1.000     C          0.605957  
         C29       1.0000    0.21380   0.69280   0.11390   Biso      1.000     C          0.111178  
         C30       1.0000    0.31820   0.64450   0.06210   Biso      1.000     C          -0.175611           
         C31       1.0000    0.34770   0.53930   0.08810   Biso      1.000     C          0.168491  
         C32       1.0000    0.78620   0.30720   0.88610   Biso      1.000     C          0.111186  
         C33       1.0000    0.46200   0.48230   0.03750   Biso      1.000     C          -0.12761  
         C34       1.0000    0.84940   0.06580   0.78750   Biso      1.000     C          0.615291  
         C35       1.0000    0.65980   0.59720   0.32090   Biso      1.000     C          0.635088  
         C36       1.0000    0.87020   0.74110   0.55880   Biso      1.000     C          -0.104751           
         C37       1.0000    0.33970   0.19830   0.88110   Biso      1.000     C          0.605958  
         C38       1.0000    0.24440   0.24250   0.94580   Biso      1.000     C          -0.06593099999999999          
         C39       1.0000    0.18980   0.18530   0.02330   Biso      1.000     C          -0.10628399999999999          
         C40       1.0000    0.89680   0.73520   0.64660   Biso      1.000     C          -0.087139           
         C41       1.0000    0.10220   0.22870   0.08130   Biso      1.000     C          -0.069884           
         C42       1.0000    0.81870   0.80970   0.67630   Biso      1.000     C          -0.075029           
         C43       1.0000    0.06910   0.33100   0.06300   Biso      1.000     C          -0.095067           
         C44       1.0000    0.70890   0.89270   0.62410   Biso      1.000     C          -0.167126           
         C45       1.0000    0.13120   0.39110   0.98500   Biso      1.000     C          -0.162984           
         C46       1.0000    0.67750   0.89850   0.53840   Biso      1.000     C          0.14996900000000002           
         C47       1.0000    0.21770   0.34850   0.92540   Biso      1.000     C          0.12896400000000002           
         C48       1.0000    0.31280   0.54640   0.74490   Biso      1.000     C          0.136296  
         C49       1.0000    0.32500   0.64470   0.73460   Biso      1.000     C          -0.171413           
         C50       1.0000    0.03150   0.00660   0.81570   Biso      1.000     C          -0.078054           
         C51       1.0000    0.15060   0.93420   0.21250   Biso      1.000     C          0.615293  
         C52       1.0000    0.96850   0.99340   0.18430   Biso      1.000     C          -0.078053           
         C53       1.0000    0.13330   0.97400   0.75510   Biso      1.000     C          -0.117075           
         C54       1.0000    0.90830   0.01710   0.09830   Biso      1.000     C          0.13788599999999998           
         C55       1.0000    0.30790   0.92140   0.77660   Biso      1.000     C          -0.073295           
         C56       1.0000    0.73190   0.06970   0.07500   Biso      1.000     C          -0.147309           
         C57       1.0000    0.36900   0.90070   0.86180   Biso      1.000     C          -0.075882           
         C58       1.0000    0.39140   0.70140   0.65760   Biso      1.000     C          -0.08373799999999999          
         C59       1.0000    0.26810   0.93030   0.92500   Biso      1.000     C          -0.147299           
         C60       1.0000    0.63100   0.09930   0.13820   Biso      1.000     C          -0.07587999999999999          
         C61       1.0000    0.34020   0.40280   0.67910   Biso      1.000     C          0.6350859999999999  
         C62       1.0000    0.36630   0.50440   0.67760   Biso      1.000     C          -0.064363           
         C63       1.0000    0.69210   0.07860   0.22340   Biso      1.000     C          -0.07328899999999999          
         C64       1.0000    0.43040   0.56390   0.60270   Biso      1.000     C          -0.115096           
         C65       1.0000    0.86670   0.02600   0.24490   Biso      1.000     C          -0.117076           
         C66       1.0000    0.44640   0.66260   0.59090   Biso      1.000     C          -0.054322           
         C67       1.0000    0.09170   0.98290   0.90170   Biso      1.000     C          0.137878  
         C68       1.0000    0.72410   0.82670   0.41160   Biso      1.000     C          0.640754  
         Cd1       1.0000    0.48581   0.83375   0.26227   Biso      1.000     Cd          1.027104  
         Cd2       1.0000    0.97900   0.72970   0.27370   Biso      1.000     Cd          1.056155  
         Cd3       1.0000    0.02100   0.27030   0.72630   Biso      1.000     Cd          1.0561559999999999  
         Cd4       1.0000    0.51419   0.16625   0.73773   Biso      1.000     Cd          1.027104  
         H1        1.0000    0.36870   0.68130   0.01050   Biso      1.000     H          0.128615  
         H2        1.0000    0.48500   0.86470   0.87720   Biso      1.000     H          0.103469  
         H3        1.0000    0.68560   0.08390   0.01780   Biso      1.000     H          0.125863  
         H4        1.0000    0.31440   0.91610   0.98220   Biso      1.000     H          0.125863  
         H5        1.0000    0.51500   0.13530   0.12280   Biso      1.000     H          0.103469  
         H6        1.0000    0.46550   0.53670   0.55680   Biso      1.000     H          0.11021199999999999           
         H7        1.0000    0.61930   0.09890   0.26560   Biso      1.000     H          0.107574  
         H8        1.0000    0.49320   0.70120   0.53900   Biso      1.000     H          0.111731  
         H9        1.0000    0.91360   0.01330   0.30170   Biso      1.000     H          0.121582  
         H10       1.0000    0.39890   0.76830   0.65090   Biso      1.000     H          0.101229  
         H11       1.0000    0.28830   0.67290   0.77970   Biso      1.000     H          0.117769  
         H12       1.0000    0.11350   0.46100   0.97330   Biso      1.000     H          0.11021700000000001           
         H13       1.0000    0.00520   0.36030   0.10270   Biso      1.000     H          0.099522  
         H14       1.0000    0.65620   0.94460   0.64650   Biso      1.000     H          0.123431  
         H15       1.0000    0.06380   0.18810   0.13470   Biso      1.000     H          0.10007100000000001           
         H16       1.0000    0.83970   0.80510   0.73520   Biso      1.000     H          0.09714400000000001           
         H17       1.0000    0.21250   0.11500   0.03720   Biso      1.000     H          0.11629300000000001           
         H18       1.0000    0.96970   0.67880   0.68460   Biso      1.000     H          0.09955900000000001           
         H19       1.0000    0.38070   0.90110   0.73440   Biso      1.000     H          0.107575  
         H20       1.0000    0.08640   0.98670   0.69830   Biso      1.000     H          0.121582  
         H21       1.0000    0.34380   0.05540   0.35350   Biso      1.000     H          0.123431  
         H22       1.0000    0.53450   0.46330   0.44320   Biso      1.000     H          0.11021199999999999           
         H23       1.0000    0.19430   0.76330   0.09630   Biso      1.000     H          0.090432  
         H24       1.0000    0.11730   0.50910   0.26420   Biso      1.000     H          0.092329  
         H25       1.0000    0.29190   0.42140   0.18360   Biso      1.000     H          0.12190899999999999           
         H26       1.0000    0.78750   0.88500   0.96280   Biso      1.000     H          0.11629300000000001           
         H27       1.0000    0.92640   0.68920   0.53710   Biso      1.000     H          0.117949  
         H28       1.0000    0.93620   0.81190   0.86530   Biso      1.000     H          0.10007200000000001           
         H29       1.0000    0.70810   0.57860   0.81640   Biso      1.000     H          0.121906  
         H30       1.0000    0.99480   0.63970   0.89730   Biso      1.000     H          0.099522  
         H31       1.0000    0.88270   0.49090   0.73580   Biso      1.000     H          0.09233   
         H32       1.0000    0.88650   0.53900   0.02670   Biso      1.000     H          0.11021600000000001           
         H33       1.0000    0.80570   0.23670   0.90370   Biso      1.000     H          0.09043   
         H34       1.0000    0.63130   0.31870   0.98950   Biso      1.000     H          0.128615  
         H35       1.0000    0.51730   0.58790   0.93780   Biso      1.000     H          0.10854100000000001           
         H36       1.0000    0.71170   0.32710   0.22030   Biso      1.000     H          0.11776800000000001           
         H37       1.0000    0.07360   0.31080   0.46290   Biso      1.000     H          0.11795   
         H38       1.0000    0.60110   0.23170   0.34910   Biso      1.000     H          0.101228  
         H39       1.0000    0.03030   0.32120   0.31540   Biso      1.000     H          0.09955599999999999           
         H40       1.0000    0.50680   0.29880   0.46100   Biso      1.000     H          0.111732  
         H41       1.0000    0.16030   0.19490   0.26480   Biso      1.000     H          0.09714600000000001           
         H42       1.0000    0.48270   0.41210   0.06220   Biso      1.000     H          0.10853900000000001           
         N1        1.0000    0.72030   0.59790   0.15660   Biso      1.000     N          -0.11053099999999999          
         N2        1.0000    0.02500   0.98240   0.04000   Biso      1.000     N          -0.125198           
         N3        1.0000    0.13850   0.64410   0.18820   Biso      1.000     N          -0.246808           
         N4        1.0000    0.75610   0.50420   0.17370   Biso      1.000     N          -0.137521           
         N5        1.0000    0.86150   0.35590   0.81180   Biso      1.000     N          -0.246808           
         N6        1.0000    0.43450   0.01560   0.51950   Biso      1.000     N          -0.099136           
         N7        1.0000    0.97500   0.01760   0.96000   Biso      1.000     N          -0.12511  
         N8        1.0000    0.24390   0.49580   0.82630   Biso      1.000     N          -0.137595           
         N9        1.0000    0.27970   0.40210   0.84340   Biso      1.000     N          -0.110453           
         N10       1.0000    0.56550   0.98440   0.48050   Biso      1.000     N          -0.099051           
         O1        1.0000    0.74470   0.81080   0.18230   Biso      1.000     O          -0.609485           
         O2        1.0000    0.49350   0.82580   0.11440   Biso      1.000     O          -0.522954           
         O3        1.0000    0.52450   0.66250   0.31720   Biso      1.000     O          -0.5879   
         O4        1.0000    0.17430   0.83980   0.23680   Biso      1.000     O          -0.5779479999999999           
         O5        1.0000    0.27590   0.97830   0.21360   Biso      1.000     O          -0.525831           
         O6        1.0000    0.81720   0.60680   0.32900   Biso      1.000     O          -0.618232           
         O7        1.0000    0.43330   0.14990   0.61560   Biso      1.000     O          -0.562403           
         O8        1.0000    0.14300   0.19570   0.62990   Biso      1.000     O          -0.597328           
         O9        1.0000    0.72410   0.02170   0.78640   Biso      1.000     O          -0.52583  
         O10       1.0000    0.82570   0.16020   0.76320   Biso      1.000     O          -0.5779479999999999           
         O11       1.0000    0.18280   0.39320   0.67100   Biso      1.000     O          -0.618233           
         O12       1.0000    0.47550   0.33750   0.68280   Biso      1.000     O          -0.5879   
         O13       1.0000    0.50650   0.17420   0.88560   Biso      1.000     O          -0.522954           
         O14       1.0000    0.25530   0.18920   0.81770   Biso      1.000     O          -0.609486           
         O15       1.0000    0.85700   0.80430   0.37010   Biso      1.000     O          -0.597328           
         O16       1.0000    0.56670   0.85010   0.38440   Biso      1.000     O          -0.562405 