
##########################################################################
#               Crystallographic Information Format file
#               Produced by PyCifRW module
#
#  This is a CIF file.  CIF has been adopted by the International
#  Union of Crystallography as the standard for data archiving and
#  transmission.
#
#  For information on this file format, follow the CIF links at
#  http://www.iucr.org
##########################################################################

data_image0

_cell_length_a                          25.366
_cell_length_b                          6.0392
_cell_length_c                          12.3195
_cell_angle_alpha                       90
_cell_angle_beta                        90
_cell_angle_gamma                       90
_symmetry_space_group_name_H-M          'P 1'
_symmetry_int_tables_number             1
loop_
  _symmetry_equiv_pos_as_xyz
         'x, y, z' 
loop_
  _atom_site_label
  _atom_site_occupancy
  _atom_site_fract_x
  _atom_site_fract_y
  _atom_site_fract_z
  _atom_site_thermal_displace_type
  _atom_site_B_iso_or_equiv
  _atom_site_type_symbol
  _atom_site_charge
         C1        1.0000    0.00060   0.97620   0.17220   Biso      1.000     C          0.045376  
         C2        1.0000    0.24280   0.44630   0.04660   Biso      1.000     C          0.043705  
         C3        1.0000    0.95530   0.95170   0.74420   Biso      1.000     C          0.55934   
         C4        1.0000    0.53970   0.22250   0.55020   Biso      1.000     C          0.066092  
         C5        1.0000    0.95900   0.11600   0.15100   Biso      1.000     C          -0.164025           
         C6        1.0000    0.50030   0.27290   0.62210   Biso      1.000     C          -0.142385           
         C7        1.0000    0.74990   0.75840   0.59480   Biso      1.000     C          -0.152609           
         C8        1.0000    0.49940   0.47620   0.67220   Biso      1.000     C          0.045379  
         C9        1.0000    0.54100   0.61600   0.65100   Biso      1.000     C          -0.164025           
         C10       1.0000    0.75720   0.55370   0.54660   Biso      1.000     C          0.043706  
         C11       1.0000    0.57970   0.55110   0.57730   Biso      1.000     C          0.095234  
         C12       1.0000    0.16690   0.48300   0.15620   Biso      1.000     C          0.087166  
         C13       1.0000    0.45530   0.54830   0.74420   Biso      1.000     C          0.55934   
         C14       1.0000    0.66690   0.01700   0.15620   Biso      1.000     C          0.087168  
         C15       1.0000    0.80030   0.43610   0.57710   Biso      1.000     C          -0.158629           
         C16       1.0000    0.69970   0.93610   0.07710   Biso      1.000     C          -0.158639           
         C17       1.0000    0.03970   0.27750   0.55020   Biso      1.000     C          0.066092  
         C18       1.0000    0.74280   0.05370   0.04660   Biso      1.000     C          0.043718  
         C19       1.0000    0.75010   0.25840   0.09480   Biso      1.000     C          -0.152609           
         C20       1.0000    0.19970   0.56390   0.07710   Biso      1.000     C          -0.158625           
         C21       1.0000    0.71470   0.32660   0.17350   Biso      1.000     C          0.090528  
         C22       1.0000    0.83310   0.51700   0.65620   Biso      1.000     C          0.087171  
         C23       1.0000    0.25010   0.24160   0.09480   Biso      1.000     C          -0.152608           
         C24       1.0000    0.78270   0.95890   0.96910   Biso      1.000     C          0.556922  
         C25       1.0000    0.78530   0.82660   0.67350   Biso      1.000     C          0.090527  
         C26       1.0000    0.92030   0.05110   0.07730   Biso      1.000     C          0.095234  
         C27       1.0000    0.46030   0.77750   0.05020   Biso      1.000     C          0.066092  
         C28       1.0000    0.99970   0.77290   0.12210   Biso      1.000     C          -0.142387           
         C29       1.0000    0.49970   0.72710   0.12210   Biso      1.000     C          -0.142385           
         C30       1.0000    0.00030   0.22710   0.62210   Biso      1.000     C          -0.142385           
         C31       1.0000    0.50060   0.52380   0.17220   Biso      1.000     C          0.045379  
         C32       1.0000    0.45900   0.38400   0.15100   Biso      1.000     C          -0.164025           
         C33       1.0000    0.96030   0.72250   0.05020   Biso      1.000     C          0.066098  
         C34       1.0000    0.42030   0.44890   0.07730   Biso      1.000     C          0.095234  
         C35       1.0000    0.99940   0.02380   0.67220   Biso      1.000     C          0.045379  
         C36       1.0000    0.54470   0.45170   0.24420   Biso      1.000     C          0.55934   
         C37       1.0000    0.33310   0.98300   0.65620   Biso      1.000     C          0.087168  
         C38       1.0000    0.04100   0.88400   0.65100   Biso      1.000     C          -0.164025           
         C39       1.0000    0.30030   0.06390   0.57710   Biso      1.000     C          -0.158639           
         C40       1.0000    0.25720   0.94630   0.54660   Biso      1.000     C          0.043718  
         C41       1.0000    0.24990   0.74160   0.59480   Biso      1.000     C          -0.152609           
         C42       1.0000    0.07970   0.94890   0.57730   Biso      1.000     C          0.095234  
         C43       1.0000    0.28530   0.67340   0.67350   Biso      1.000     C          0.090528  
         C44       1.0000    0.71730   0.45890   0.46910   Biso      1.000     C          0.556923  
         C45       1.0000    0.21730   0.04110   0.46910   Biso      1.000     C          0.556922  
         C46       1.0000    0.28270   0.54110   0.96910   Biso      1.000     C          0.556923  
         C47       1.0000    0.21470   0.17340   0.17350   Biso      1.000     C          0.090527  
         C48       1.0000    0.04470   0.04830   0.24420   Biso      1.000     C          0.55934   
         Cd1       1.0000    0.87137   0.80029   0.86492   Biso      1.000     Cd          0.863422  
         Cd2       1.0000    0.37137   0.69971   0.86492   Biso      1.000     Cd          0.863422  
         Cd3       1.0000    0.62863   0.30029   0.36492   Biso      1.000     Cd          0.863422  
         Cd4       1.0000    0.12863   0.19971   0.36492   Biso      1.000     Cd          0.863422  
         H1        1.0000    0.89200   0.14610   0.06560   Biso      1.000     H          0.094104  
         H2        1.0000    0.80770   0.30080   0.54430   Biso      1.000     H          0.128479  
         H3        1.0000    0.78000   0.96440   0.70540   Biso      1.000     H          0.087065  
         H4        1.0000    0.04320   0.74750   0.68560   Biso      1.000     H          0.128134  
         H5        1.0000    0.97410   0.33040   0.63710   Biso      1.000     H          0.136546  
         H6        1.0000    0.95680   0.25250   0.18560   Biso      1.000     H          0.128134  
         H7        1.0000    0.86210   0.43220   0.67630   Biso      1.000     H          0.097873  
         H8        1.0000    0.72180   0.84840   0.57480   Biso      1.000     H          0.138699  
         H9        1.0000    0.69230   0.80080   0.04430   Biso      1.000     H          0.12848   
         H10       1.0000    0.96040   0.58300   0.01820   Biso      1.000     H          0.093013  
         H11       1.0000    0.46040   0.91700   0.01820   Biso      1.000     H          0.093013  
         H12       1.0000    0.52590   0.83040   0.13710   Biso      1.000     H          0.136546  
         H13       1.0000    0.45680   0.24750   0.18560   Biso      1.000     H          0.128134  
         H14       1.0000    0.39200   0.35390   0.06560   Biso      1.000     H          0.094104  
         H15       1.0000    0.36210   0.06780   0.67630   Biso      1.000     H          0.097873  
         H16       1.0000    0.30770   0.19920   0.54430   Biso      1.000     H          0.12848   
         H17       1.0000    0.22180   0.65160   0.57480   Biso      1.000     H          0.138699  
         H18       1.0000    0.28000   0.53560   0.70540   Biso      1.000     H          0.087065  
         H19       1.0000    0.22000   0.03560   0.20540   Biso      1.000     H          0.087065  
         H20       1.0000    0.02590   0.66960   0.13710   Biso      1.000     H          0.136547  
         H21       1.0000    0.27820   0.15160   0.07480   Biso      1.000     H          0.138699  
         H22       1.0000    0.47410   0.16960   0.63710   Biso      1.000     H          0.136546  
         H23       1.0000    0.54320   0.75250   0.68560   Biso      1.000     H          0.128134  
         H24       1.0000    0.60800   0.64610   0.56560   Biso      1.000     H          0.094104  
         H25       1.0000    0.63790   0.93220   0.17630   Biso      1.000     H          0.097873  
         H26       1.0000    0.77820   0.34840   0.07480   Biso      1.000     H          0.138699  
         H27       1.0000    0.72000   0.46440   0.20540   Biso      1.000     H          0.087065  
         H28       1.0000    0.19230   0.69920   0.04430   Biso      1.000     H          0.128479  
         H29       1.0000    0.13790   0.56780   0.17630   Biso      1.000     H          0.097873  
         H30       1.0000    0.10800   0.85390   0.56560   Biso      1.000     H          0.094104  
         H31       1.0000    0.53960   0.08300   0.51820   Biso      1.000     H          0.093013  
         H32       1.0000    0.03960   0.41700   0.51820   Biso      1.000     H          0.093013  
         N1        1.0000    0.67440   0.21040   0.20570   Biso      1.000     N          -0.216095           
         N2        1.0000    0.92145   0.86400   0.02340   Biso      1.000     N          -0.219904           
         N3        1.0000    0.42145   0.63600   0.02340   Biso      1.000     N          -0.219904           
         N4        1.0000    0.82560   0.71040   0.70570   Biso      1.000     N          -0.216095           
         N5        1.0000    0.57855   0.36400   0.52340   Biso      1.000     N          -0.219904           
         N6        1.0000    0.07855   0.13600   0.52340   Biso      1.000     N          -0.219904           
         N7        1.0000    0.32560   0.78960   0.70570   Biso      1.000     N          -0.216095           
         N8        1.0000    0.17440   0.28960   0.20570   Biso      1.000     N          -0.216094           
         O1        1.0000    0.28716   0.74570   0.96380   Biso      1.000     O          -0.558815           
         O2        1.0000    0.31341   0.41200   0.91870   Biso      1.000     O          -0.570037           
         O3        1.0000    0.92086   0.09320   0.77130   Biso      1.000     O          -0.575294           
         O4        1.0000    0.95203   0.75490   0.77070   Biso      1.000     O          -0.553915           
         O5        1.0000    0.54797   0.25490   0.27070   Biso      1.000     O          -0.553915           
         O6        1.0000    0.57914   0.59320   0.27130   Biso      1.000     O          -0.575294           
         O7        1.0000    0.04797   0.24510   0.27070   Biso      1.000     O          -0.553915           
         O8        1.0000    0.07914   0.90680   0.27130   Biso      1.000     O          -0.575294           
         O9        1.0000    0.71284   0.25430   0.46380   Biso      1.000     O          -0.558815           
         O10       1.0000    0.68659   0.58800   0.41870   Biso      1.000     O          -0.570037           
         O11       1.0000    0.45203   0.74510   0.77070   Biso      1.000     O          -0.553915           
         O12       1.0000    0.42086   0.40680   0.77130   Biso      1.000     O          -0.575294           
         O13       1.0000    0.81341   0.08800   0.91870   Biso      1.000     O          -0.570037           
         O14       1.0000    0.78716   0.75430   0.96380   Biso      1.000     O          -0.558814           
         O15       1.0000    0.21284   0.24570   0.46380   Biso      1.000     O          -0.558814           
         O16       1.0000    0.18659   0.91200   0.41870   Biso      1.000     O          -0.570037 