
##########################################################################
#               Crystallographic Information Format file
#               Produced by PyCifRW module
#
#  This is a CIF file.  CIF has been adopted by the International
#  Union of Crystallography as the standard for data archiving and
#  transmission.
#
#  For information on this file format, follow the CIF links at
#  http://www.iucr.org
##########################################################################

data_image0

_cell_length_a                          10.1561
_cell_length_b                          12.2843
_cell_length_c                          14.6867
_cell_angle_alpha                       90
_cell_angle_beta                        102.999
_cell_angle_gamma                       90
_symmetry_space_group_name_H-M          'P 1'
_symmetry_int_tables_number             1
loop_
  _symmetry_equiv_pos_as_xyz
         'x, y, z' 
loop_
  _atom_site_label
  _atom_site_occupancy
  _atom_site_fract_x
  _atom_site_fract_y
  _atom_site_fract_z
  _atom_site_thermal_displace_type
  _atom_site_B_iso_or_equiv
  _atom_site_type_symbol
  _atom_site_charge
         C1        1.0000    0.25950   0.84260   0.29440   Biso      1.000     C          -0.071172           
         C2        1.0000    0.77980   0.06870   0.77630   Biso      1.000     C          0.622054  
         C3        1.0000    0.74050   0.15740   0.70560   Biso      1.000     C          -0.071172           
         C4        1.0000    0.60830   0.19560   0.67890   Biso      1.000     C          -0.08264099999999999          
         C5        1.0000    0.57590   0.28130   0.61650   Biso      1.000     C          0.010467  
         C6        1.0000    0.43340   0.32400   0.59250   Biso      1.000     C          0.566785  
         C7        1.0000    0.67640   0.32940   0.58050   Biso      1.000     C          -0.0862   
         C8        1.0000    0.08040   0.84620   0.92970   Biso      1.000     C          0.606408  
         C9        1.0000    0.80900   0.29270   0.60680   Biso      1.000     C          -0.018586000000000002         
         C10       1.0000    0.83990   0.20680   0.66870   Biso      1.000     C          -0.126655           
         C11       1.0000    0.22020   0.56870   0.72370   Biso      1.000     C          0.622054  
         C12       1.0000    0.25950   0.65740   0.79440   Biso      1.000     C          -0.071172           
         C13       1.0000    0.39170   0.69560   0.82110   Biso      1.000     C          -0.08264099999999999          
         C14       1.0000    0.42410   0.78130   0.88350   Biso      1.000     C          0.010467  
         C15       1.0000    0.56660   0.82400   0.90750   Biso      1.000     C          0.566785  
         C16       1.0000    0.91960   0.34620   0.57030   Biso      1.000     C          0.606408  
         C17       1.0000    0.16010   0.70680   0.83130   Biso      1.000     C          -0.126658           
         C18       1.0000    0.22020   0.93130   0.22370   Biso      1.000     C          0.622053  
         C19       1.0000    0.39170   0.80440   0.32110   Biso      1.000     C          -0.08264099999999999          
         C20       1.0000    0.83990   0.29320   0.16870   Biso      1.000     C          -0.126659           
         C21       1.0000    0.91960   0.15380   0.07030   Biso      1.000     C          0.606408  
         C22       1.0000    0.80900   0.20730   0.10680   Biso      1.000     C          -0.018584           
         C23       1.0000    0.67640   0.17060   0.08050   Biso      1.000     C          -0.086199           
         C24       1.0000    0.43340   0.17600   0.09250   Biso      1.000     C          0.566785  
         C25       1.0000    0.57590   0.21870   0.11650   Biso      1.000     C          0.010469  
         C26       1.0000    0.60830   0.30440   0.17890   Biso      1.000     C          -0.082642           
         C27       1.0000    0.74050   0.34260   0.20560   Biso      1.000     C          -0.07117000000000001          
         C28       1.0000    0.77980   0.43130   0.27630   Biso      1.000     C          0.622053  
         C29       1.0000    0.16010   0.79320   0.33130   Biso      1.000     C          -0.126657           
         C30       1.0000    0.08040   0.65380   0.42970   Biso      1.000     C          0.606408  
         C31       1.0000    0.19100   0.70730   0.39320   Biso      1.000     C          -0.018585           
         C32       1.0000    0.32360   0.67060   0.41950   Biso      1.000     C          -0.086199           
         C33       1.0000    0.56660   0.67600   0.40750   Biso      1.000     C          0.566785  
         C34       1.0000    0.42410   0.71870   0.38350   Biso      1.000     C          0.010468  
         C35       1.0000    0.32360   0.82940   0.91950   Biso      1.000     C          -0.0862   
         C36       1.0000    0.19100   0.79270   0.89320   Biso      1.000     C          -0.018583000000000002         
         Cd1       1.0000    0.81048   0.92430   0.93890   Biso      1.000     Cd          0.991894  
         Cd2       1.0000    0.18952   0.42430   0.56110   Biso      1.000     Cd          0.991894  
         Cd3       1.0000    0.18952   0.07570   0.06110   Biso      1.000     Cd          0.991894  
         Cd4       1.0000    0.81048   0.57570   0.43890   Biso      1.000     Cd          0.991894  
         H1        1.0000    0.92850   0.31830   0.18590   Biso      1.000     H          0.122649  
         H2        1.0000    0.95300   0.42760   0.32910   Biso      1.000     H          0.43863800000000003           
         H3        1.0000    0.54090   0.16320   0.70320   Biso      1.000     H          0.135632  
         H4        1.0000    0.92850   0.18170   0.68590   Biso      1.000     H          0.122649  
         H5        1.0000    0.95300   0.07240   0.82910   Biso      1.000     H          0.43863800000000003           
         H6        1.0000    0.45910   0.66320   0.79680   Biso      1.000     H          0.135632  
         H7        1.0000    0.34490   0.88680   0.96160   Biso      1.000     H          0.134279  
         H8        1.0000    0.65510   0.38680   0.53840   Biso      1.000     H          0.134279  
         H9        1.0000    0.04700   0.57240   0.67090   Biso      1.000     H          0.43863800000000003           
         H10       1.0000    0.45910   0.83680   0.29680   Biso      1.000     H          0.135632  
         H11       1.0000    0.34490   0.61320   0.46160   Biso      1.000     H          0.134279  
         H12       1.0000    0.07150   0.81830   0.31410   Biso      1.000     H          0.122649  
         H13       1.0000    0.04700   0.92760   0.17090   Biso      1.000     H          0.43863800000000003           
         H14       1.0000    0.54090   0.33680   0.20320   Biso      1.000     H          0.135632  
         H15       1.0000    0.07150   0.68170   0.81410   Biso      1.000     H          0.122649  
         H16       1.0000    0.65510   0.11320   0.03840   Biso      1.000     H          0.134279  
         O1        1.0000    0.10250   0.96880   0.20720   Biso      1.000     O          -0.508912           
         O2        1.0000    0.96150   0.68320   0.39520   Biso      1.000     O          -0.529273           
         O3        1.0000    0.10950   0.58540   0.49310   Biso      1.000     O          -0.640174           
         O4        1.0000    0.59570   0.60240   0.46810   Biso      1.000     O          -0.5529649999999999           
         O5        1.0000    0.89750   0.46880   0.29280   Biso      1.000     O          -0.508912           
         O6        1.0000    0.69360   0.46360   0.31990   Biso      1.000     O          -0.447686           
         O7        1.0000    0.03850   0.18320   0.10480   Biso      1.000     O          -0.529273           
         O8        1.0000    0.89050   0.08540   0.00690   Biso      1.000     O          -0.640174           
         O9        1.0000    0.30640   0.96360   0.18010   Biso      1.000     O          -0.447686           
         O10       1.0000    0.65010   0.71260   0.36440   Biso      1.000     O          -0.564542           
         O11       1.0000    0.65010   0.78740   0.86440   Biso      1.000     O          -0.564542           
         O12       1.0000    0.03850   0.31680   0.60480   Biso      1.000     O          -0.529274           
         O13       1.0000    0.10950   0.91460   0.99310   Biso      1.000     O          -0.640174           
         O14       1.0000    0.96150   0.81680   0.89520   Biso      1.000     O          -0.529274           
         O15       1.0000    0.10250   0.53120   0.70720   Biso      1.000     O          -0.508912           
         O16       1.0000    0.30640   0.53640   0.68010   Biso      1.000     O          -0.447686           
         O17       1.0000    0.34990   0.28740   0.63560   Biso      1.000     O          -0.564542           
         O18       1.0000    0.40430   0.39760   0.53190   Biso      1.000     O          -0.5529649999999999           
         O19       1.0000    0.89050   0.41460   0.50690   Biso      1.000     O          -0.640174           
         O20       1.0000    0.89750   0.03120   0.79280   Biso      1.000     O          -0.508912           
         O21       1.0000    0.69360   0.03640   0.81990   Biso      1.000     O          -0.447686           
         O22       1.0000    0.40430   0.10240   0.03190   Biso      1.000     O          -0.5529649999999999           
         O23       1.0000    0.59570   0.89760   0.96810   Biso      1.000     O          -0.5529649999999999           
         O24       1.0000    0.34990   0.21260   0.13560   Biso      1.000     O          -0.564542 