
##########################################################################
#               Crystallographic Information Format file
#               Produced by PyCifRW module
#
#  This is a CIF file.  CIF has been adopted by the International
#  Union of Crystallography as the standard for data archiving and
#  transmission.
#
#  For information on this file format, follow the CIF links at
#  http://www.iucr.org
##########################################################################

data_image0

_cell_length_a                          11.3972
_cell_length_b                          11.8255
_cell_length_c                          18.9914
_cell_angle_alpha                       90
_cell_angle_beta                        90
_cell_angle_gamma                       118.038
_symmetry_space_group_name_H-M          'P 1'
_symmetry_int_tables_number             1
loop_
  _symmetry_equiv_pos_as_xyz
         'x, y, z' 
loop_
  _atom_site_label
  _atom_site_occupancy
  _atom_site_fract_x
  _atom_site_fract_y
  _atom_site_fract_z
  _atom_site_thermal_displace_type
  _atom_site_B_iso_or_equiv
  _atom_site_type_symbol
  _atom_site_charge
         C1        1.0000    0.31710   0.91710   0.50142   Biso      1.000     C          -0.304691           
         C2        1.0000    0.81960   0.31630   0.75911   Biso      1.000     C          0.08401499999999999           
         C3        1.0000    0.72620   0.19940   0.72827   Biso      1.000     C          0.080695  
         C4        1.0000    0.71960   0.08350   0.75327   Biso      1.000     C          -0.143353           
         C5        1.0000    0.80060   0.08390   0.80565   Biso      1.000     C          -0.111774           
         C6        1.0000    0.64360   0.20270   0.67371   Biso      1.000     C          -0.183834           
         C7        1.0000    0.65310   0.31600   0.64934   Biso      1.000     C          -0.014544999999999999         
         C8        1.0000    0.56160   0.31830   0.59280   Biso      1.000     C          0.602363  
         C9        1.0000    0.90140   0.31310   0.81442   Biso      1.000     C          -0.190768           
         C10       1.0000    0.74870   0.43200   0.67971   Biso      1.000     C          -0.10663199999999999          
         C11       1.0000    0.30430   0.20370   0.97957   Biso      1.000     C          0.572383  
         C12       1.0000    0.38510   0.13410   0.97643   Biso      1.000     C          -0.009295999999999999         
         C13       1.0000    0.36190   0.03720   0.02197   Biso      1.000     C          -0.15779100000000001          
         C14       1.0000    0.44600   0.97810   0.02389   Biso      1.000     C          0.077416  
         C15       1.0000    0.42570   0.87880   0.07205   Biso      1.000     C          -0.138952           
         C16       1.0000    0.49340   0.17680   0.92839   Biso      1.000     C          -0.122045           
         C17       1.0000    0.18290   0.58290   0.00142   Biso      1.000     C          -0.30492600000000003          
         C18       1.0000    0.82840   0.43280   0.73295   Biso      1.000     C          -0.149838           
         C19       1.0000    0.35540   0.57740   0.92689   Biso      1.000     C          -0.298388           
         C20       1.0000    0.89400   0.20020   0.83722   Biso      1.000     C          -0.015465999999999999         
         C21       1.0000    0.14460   0.92260   0.42689   Biso      1.000     C          -0.29844  
         C22       1.0000    0.85640   0.29730   0.17371   Biso      1.000     C          -0.18238  
         C23       1.0000    0.69940   0.41610   0.30565   Biso      1.000     C          -0.110101           
         C24       1.0000    0.78040   0.41650   0.25327   Biso      1.000     C          -0.143513           
         C25       1.0000    0.77380   0.30060   0.22827   Biso      1.000     C          0.080974  
         C26       1.0000    0.68040   0.18370   0.25911   Biso      1.000     C          0.08380599999999999           
         C27       1.0000    0.59860   0.18690   0.31442   Biso      1.000     C          -0.190887           
         C28       1.0000    0.60600   0.29980   0.33722   Biso      1.000     C          -0.016565           
         C29       1.0000    0.98240   0.19880   0.89570   Biso      1.000     C          0.589645  
         C30       1.0000    0.51760   0.30120   0.39570   Biso      1.000     C          0.597187  
         C31       1.0000    0.67160   0.06720   0.23295   Biso      1.000     C          -0.148912           
         C32       1.0000    0.19570   0.29630   0.47957   Biso      1.000     C          0.575454  
         C33       1.0000    0.11490   0.36590   0.47643   Biso      1.000     C          -0.01004  
         C34       1.0000    0.13810   0.46280   0.52197   Biso      1.000     C          -0.15604400000000002          
         C35       1.0000    0.05400   0.52190   0.52389   Biso      1.000     C          0.077827  
         C36       1.0000    0.07430   0.62120   0.57205   Biso      1.000     C          -0.138014           
         C37       1.0000    0.00660   0.32320   0.42839   Biso      1.000     C          -0.12166500000000001          
         C38       1.0000    0.75130   0.06800   0.17971   Biso      1.000     C          -0.107679           
         C39       1.0000    0.48240   0.69880   0.60430   Biso      1.000     C          0.597166  
         C40       1.0000    0.39400   0.70020   0.66278   Biso      1.000     C          -0.01647  
         C41       1.0000    0.40140   0.81310   0.68558   Biso      1.000     C          -0.190923           
         C42       1.0000    0.27380   0.80060   0.27173   Biso      1.000     C          0.080733  
         C43       1.0000    0.28040   0.91650   0.24673   Biso      1.000     C          -0.14337  
         C44       1.0000    0.19940   0.91610   0.19435   Biso      1.000     C          -0.11178699999999998          
         C45       1.0000    0.35640   0.79730   0.32629   Biso      1.000     C          -0.18387  
         C46       1.0000    0.34690   0.68400   0.35066   Biso      1.000     C          -0.014431           
         C47       1.0000    0.43840   0.68170   0.40720   Biso      1.000     C          0.602322  
         C48       1.0000    0.25130   0.56800   0.32029   Biso      1.000     C          -0.10665  
         C49       1.0000    0.18040   0.68370   0.24089   Biso      1.000     C          0.084035  
         C50       1.0000    0.17160   0.56720   0.26705   Biso      1.000     C          -0.149857           
         C51       1.0000    0.61490   0.86590   0.02357   Biso      1.000     C          -0.009202           
         C52       1.0000    0.63810   0.96280   0.97803   Biso      1.000     C          -0.157845           
         C53       1.0000    0.55400   0.02190   0.97611   Biso      1.000     C          0.077446  
         C54       1.0000    0.57430   0.12120   0.92795   Biso      1.000     C          -0.138948           
         C55       1.0000    0.50660   0.82320   0.07161   Biso      1.000     C          -0.12203900000000001          
         C56       1.0000    0.81710   0.41710   0.99858   Biso      1.000     C          -0.304944           
         C57       1.0000    0.64460   0.42260   0.07311   Biso      1.000     C          -0.298394           
         C58       1.0000    0.69570   0.79630   0.02043   Biso      1.000     C          0.572372  
         C59       1.0000    0.09860   0.68690   0.18558   Biso      1.000     C          -0.190797           
         C60       1.0000    0.10600   0.79980   0.16278   Biso      1.000     C          -0.015418000000000001         
         C61       1.0000    0.01760   0.80120   0.10430   Biso      1.000     C          0.5896100000000001  
         C62       1.0000    0.31960   0.81630   0.74089   Biso      1.000     C          0.083835  
         C63       1.0000    0.22620   0.69940   0.77173   Biso      1.000     C          0.080996  
         C64       1.0000    0.21960   0.58350   0.74673   Biso      1.000     C          -0.143537           
         C65       1.0000    0.30060   0.58390   0.69435   Biso      1.000     C          -0.110108           
         C66       1.0000    0.14360   0.70270   0.82629   Biso      1.000     C          -0.182401           
         C67       1.0000    0.15310   0.81600   0.85066   Biso      1.000     C          -0.013459           
         C68       1.0000    0.06160   0.81830   0.90720   Biso      1.000     C          0.597745  
         C69       1.0000    0.24870   0.93200   0.82029   Biso      1.000     C          -0.107697           
         C70       1.0000    0.32840   0.93280   0.76705   Biso      1.000     C          -0.148927           
         C71       1.0000    0.80430   0.70370   0.52043   Biso      1.000     C          0.5754090000000001  
         C72       1.0000    0.88510   0.63410   0.52357   Biso      1.000     C          -0.009858           
         C73       1.0000    0.86190   0.53720   0.47803   Biso      1.000     C          -0.156131           
         C74       1.0000    0.94600   0.47810   0.47611   Biso      1.000     C          0.07787899999999999           
         C75       1.0000    0.92570   0.37880   0.42795   Biso      1.000     C          -0.13802999999999999          
         C76       1.0000    0.99340   0.67680   0.57161   Biso      1.000     C          -0.12168599999999999          
         C77       1.0000    0.68290   0.08290   0.49858   Biso      1.000     C          -0.304719           
         C78       1.0000    0.85540   0.07740   0.57311   Biso      1.000     C          -0.298446           
         C79       1.0000    0.84690   0.18400   0.14934   Biso      1.000     C          -0.013512           
         C80       1.0000    0.93840   0.18170   0.09280   Biso      1.000     C          0.597762  
         Co1       1.0000    0.31629   0.16796   0.50568   Biso      1.000     Co          0.8509760000000001  
         Co2       1.0000    0.18371   0.33204   0.00568   Biso      1.000     Co          0.842042  
         Co3       1.0000    0.68371   0.83204   0.49432   Biso      1.000     Co          0.8507540000000001  
         Co4       1.0000    0.81629   0.66796   0.99432   Biso      1.000     Co          0.8418479999999999  
         Co5       1.0000    0.50000   0.50000   0.50000   Biso      1.000     Co          1.1109149999999999  
         Co6       1.0000    0.00000   0.00000   0.00000   Biso      1.000     Co          0.9878129999999999  
         H1        1.0000    0.60860   0.33050   0.07510   Biso      1.000     H          0.13151300000000002           
         H2        1.0000    0.96170   0.38850   0.83540   Biso      1.000     H          0.11845499999999999           
         H3        1.0000    0.66100   0.00520   0.73350   Biso      1.000     H          0.11718900000000002           
         H4        1.0000    0.79540   0.00740   0.82120   Biso      1.000     H          0.127352  
         H5        1.0000    0.58170   0.12690   0.65300   Biso      1.000     H          0.117334  
         H6        1.0000    0.75860   0.50820   0.66310   Biso      1.000     H          0.120387  
         H7        1.0000    0.35550   0.85090   0.10420   Biso      1.000     H          0.110075  
         H8        1.0000    0.29230   0.00870   0.05280   Biso      1.000     H          0.12878299999999998           
         H9        1.0000    0.70890   0.46440   0.11140   Biso      1.000     H          0.146058  
         H10       1.0000    0.50790   0.24210   0.89640   Biso      1.000     H          0.11895499999999999           
         H11       1.0000    0.33870   0.56450   0.03070   Biso      1.000     H          0.24095500000000003           
         H12       1.0000    0.14620   0.56170   0.04910   Biso      1.000     H          0.140977  
         H13       1.0000    0.88730   0.50930   0.75250   Biso      1.000     H          0.118751  
         H14       1.0000    0.10860   0.83050   0.42490   Biso      1.000     H          0.131945  
         H15       1.0000    0.27230   0.82280   0.49590   Biso      1.000     H          0.13100799999999999           
         H16       1.0000    0.38420   0.95600   0.46520   Biso      1.000     H          0.147286  
         H17       1.0000    0.22770   0.67720   0.99590   Biso      1.000     H          0.130465  
         H18       1.0000    0.35380   0.93830   0.54910   Biso      1.000     H          0.141188  
         H19       1.0000    0.16130   0.93550   0.53070   Biso      1.000     H          0.24099   
         H20       1.0000    0.99210   0.25790   0.39640   Biso      1.000     H          0.11915999999999999           
         H21       1.0000    0.14450   0.64910   0.60420   Biso      1.000     H          0.11041199999999998           
         H22       1.0000    0.20770   0.49130   0.55280   Biso      1.000     H          0.129137  
         H23       1.0000    0.61270   0.99070   0.25250   Biso      1.000     H          0.11895399999999999           
         H24       1.0000    0.74140   0.99180   0.16310   Biso      1.000     H          0.12097000000000001           
         H25       1.0000    0.91830   0.37310   0.15300   Biso      1.000     H          0.11777   
         H26       1.0000    0.70460   0.49260   0.32120   Biso      1.000     H          0.127154  
         H27       1.0000    0.83900   0.49480   0.23350   Biso      1.000     H          0.11733699999999998           
         H28       1.0000    0.53830   0.11150   0.33540   Biso      1.000     H          0.11825899999999999           
         H29       1.0000    0.07210   0.94590   0.42800   Biso      1.000     H          0.149404  
         H30       1.0000    0.11580   0.54400   0.96520   Biso      1.000     H          0.14693900000000001           
         H31       1.0000    0.20890   0.96440   0.38860   Biso      1.000     H          0.146535  
         H32       1.0000    0.39140   0.66950   0.92490   Biso      1.000     H          0.13151600000000002           
         H33       1.0000    0.57210   0.44590   0.07200   Biso      1.000     H          0.149693  
         H34       1.0000    0.88420   0.45600   0.03480   Biso      1.000     H          0.14694400000000002           
         H35       1.0000    0.42790   0.55410   0.92800   Biso      1.000     H          0.14968800000000002           
         H36       1.0000    0.85380   0.43830   0.95090   Biso      1.000     H          0.140969  
         H37       1.0000    0.66130   0.43550   0.96930   Biso      1.000     H          0.240973  
         H38       1.0000    0.49210   0.75790   0.10360   Biso      1.000     H          0.11894300000000001           
         H39       1.0000    0.64450   0.14910   0.89580   Biso      1.000     H          0.11008599999999999           
         H40       1.0000    0.70770   0.99130   0.94720   Biso      1.000     H          0.128802  
         H41       1.0000    0.11270   0.49070   0.24750   Biso      1.000     H          0.118771  
         H42       1.0000    0.24140   0.49180   0.33690   Biso      1.000     H          0.12041099999999999           
         H43       1.0000    0.41830   0.87310   0.34700   Biso      1.000     H          0.117354  
         H44       1.0000    0.20460   0.99260   0.17880   Biso      1.000     H          0.12737   
         H45       1.0000    0.33900   0.99480   0.26650   Biso      1.000     H          0.117217  
         H46       1.0000    0.03830   0.61150   0.16460   Biso      1.000     H          0.118469  
         H47       1.0000    0.79110   0.03560   0.61140   Biso      1.000     H          0.14656   
         H48       1.0000    0.77230   0.32280   0.00410   Biso      1.000     H          0.130475  
         H49       1.0000    0.92790   0.05410   0.57200   Biso      1.000     H          0.149396  
         H50       1.0000    0.89140   0.16950   0.57510   Biso      1.000     H          0.131961  
         H51       1.0000    0.46170   0.88850   0.66460   Biso      1.000     H          0.118272  
         H52       1.0000    0.16100   0.50520   0.76650   Biso      1.000     H          0.11735899999999999           
         H53       1.0000    0.29540   0.50740   0.67880   Biso      1.000     H          0.12717799999999999           
         H54       1.0000    0.08170   0.62690   0.84700   Biso      1.000     H          0.11778399999999999           
         H55       1.0000    0.25860   0.00820   0.83690   Biso      1.000     H          0.120986  
         H56       1.0000    0.38730   0.00930   0.74750   Biso      1.000     H          0.11897200000000001           
         H57       1.0000    0.29110   0.53560   0.88860   Biso      1.000     H          0.146075  
         H58       1.0000    0.85550   0.35090   0.39580   Biso      1.000     H          0.110427  
         H59       1.0000    0.00790   0.74210   0.60360   Biso      1.000     H          0.119154  
         H60       1.0000    0.83870   0.06450   0.46930   Biso      1.000     H          0.241038  
         H61       1.0000    0.64620   0.06170   0.45090   Biso      1.000     H          0.141201  
         H62       1.0000    0.72770   0.17720   0.50410   Biso      1.000     H          0.13102   
         H63       1.0000    0.79230   0.50870   0.44720   Biso      1.000     H          0.129172  
         H64       1.0000    0.61580   0.04400   0.53480   Biso      1.000     H          0.147304  
         N1        1.0000    0.72040   0.46730   0.00661   Biso      1.000     N          -0.263286           
         N2        1.0000    0.22040   0.96730   0.49339   Biso      1.000     N          -0.263554           
         N3        1.0000    0.27960   0.53270   0.99339   Biso      1.000     N          -0.263227           
         N4        1.0000    0.77960   0.03270   0.50661   Biso      1.000     N          -0.263744           
         O1        1.0000    0.57457   0.80500   0.58388   Biso      1.000     O          -0.544271           
         O2        1.0000    0.45694   0.59015   0.58075   Biso      1.000     O          -0.573046           
         O3        1.0000    0.97812   0.71088   0.93226   Biso      1.000     O          -0.573109           
         O4        1.0000    0.07310   0.92548   0.92327   Biso      1.000     O          -0.52358  
         O5        1.0000    0.52188   0.78912   0.43226   Biso      1.000     O          -0.575856           
         O6        1.0000    0.80498   0.84341   0.98563   Biso      1.000     O          -0.584205           
         O7        1.0000    0.92543   0.69500   0.08388   Biso      1.000     O          -0.542977           
         O8        1.0000    0.04306   0.90985   0.08075   Biso      1.000     O          -0.536876           
         O9        1.0000    0.69502   0.65659   0.48563   Biso      1.000     O          -0.595295           
         O10       1.0000    0.84695   0.81115   0.54887   Biso      1.000     O          -0.533516           
         O11       1.0000    0.34695   0.31115   0.95113   Biso      1.000     O          -0.535669           
         O12       1.0000    0.42543   0.19500   0.41612   Biso      1.000     O          -0.544331           
         O13       1.0000    0.47812   0.21088   0.56774   Biso      1.000     O          -0.5758810000000001           
         O14       1.0000    0.95694   0.09015   0.91925   Biso      1.000     O          -0.536914           
         O15       1.0000    0.07457   0.30500   0.91612   Biso      1.000     O          -0.54305  
         O16       1.0000    0.19502   0.15659   0.01437   Biso      1.000     O          -0.584198           
         O17       1.0000    0.15305   0.18885   0.45113   Biso      1.000     O          -0.533517           
         O18       1.0000    0.92690   0.07452   0.07673   Biso      1.000     O          -0.5236069999999999           
         O19       1.0000    0.02188   0.28912   0.06774   Biso      1.000     O          -0.573144           
         O20       1.0000    0.54306   0.40985   0.41925   Biso      1.000     O          -0.573106           
         O21       1.0000    0.30498   0.34341   0.51437   Biso      1.000     O          -0.595245           
         O22       1.0000    0.42690   0.57452   0.42327   Biso      1.000     O          -0.557892           
         O23       1.0000    0.57310   0.42548   0.57673   Biso      1.000     O          -0.557925           
         O24       1.0000    0.65305   0.68885   0.04887   Biso      1.000     O          -0.535651 