
##########################################################################
#               Crystallographic Information Format file
#               Produced by PyCifRW module
#
#  This is a CIF file.  CIF has been adopted by the International
#  Union of Crystallography as the standard for data archiving and
#  transmission.
#
#  For information on this file format, follow the CIF links at
#  http://www.iucr.org
##########################################################################

data_image0

_cell_length_a                          12.0736
_cell_length_b                          16.1715
_cell_length_c                          16.1715
_cell_angle_alpha                       65.9773
_cell_angle_beta                        75.5896
_cell_angle_gamma                       104.41
_symmetry_space_group_name_H-M          'P 1'
_symmetry_int_tables_number             1
loop_
  _symmetry_equiv_pos_as_xyz
         'x, y, z' 
loop_
  _atom_site_label
  _atom_site_occupancy
  _atom_site_fract_x
  _atom_site_fract_y
  _atom_site_fract_z
  _atom_site_thermal_displace_type
  _atom_site_B_iso_or_equiv
  _atom_site_type_symbol
  _atom_site_charge
         C1        1.0000    0.06750   0.11700   0.48660   Biso      1.000     C          -0.031204           
         C2        1.0000    0.49200   0.93410   0.64510   Biso      1.000     C          -0.095658           
         C3        1.0000    0.45050   0.88300   0.60360   Biso      1.000     C          -0.03071  
         C4        1.0000    0.64620   0.91470   0.56150   Biso      1.000     C          0.172308  
         C5        1.0000    0.69100   0.34400   0.01180   Biso      1.000     C          -0.07434  
         C6        1.0000    0.48640   0.26020   0.15930   Biso      1.000     C          0.625335  
         C7        1.0000    0.63630   0.30050   0.11530   Biso      1.000     C          -0.336687           
         C8        1.0000    0.55790   0.42080   0.93410   Biso      1.000     C          -0.097286           
         C9        1.0000    0.56750   0.51340   0.88300   Biso      1.000     C          -0.031177           
         C10       1.0000    0.73150   0.52380   0.91470   Biso      1.000     C          0.174291  
         C11       1.0000    0.34700   0.64420   0.34400   Biso      1.000     C          -0.07492  
         C12       1.0000    0.22620   0.58050   0.26020   Biso      1.000     C          0.627028  
         C13       1.0000    0.33580   0.58420   0.30050   Biso      1.000     C          -0.335906           
         C14       1.0000    0.13710   0.64510   0.42080   Biso      1.000     C          -0.093811           
         C15       1.0000    0.05410   0.60360   0.51340   Biso      1.000     C          -0.033987           
         C16       1.0000    0.20770   0.56150   0.52380   Biso      1.000     C          0.174067  
         C17       1.0000    0.75160   0.11530   0.58420   Biso      1.000     C          -0.336923           
         C18       1.0000    0.23150   0.08530   0.47620   Biso      1.000     C          0.174317  
         C19       1.0000    0.64570   0.15930   0.58050   Biso      1.000     C          0.625545  
         C20       1.0000    0.76850   0.91470   0.52380   Biso      1.000     C          0.174318  
         C21       1.0000    0.16420   0.30050   0.58420   Biso      1.000     C          -0.33592  
         C22       1.0000    0.36290   0.42080   0.64510   Biso      1.000     C          -0.093815           
         C23       1.0000    0.44590   0.51340   0.60360   Biso      1.000     C          -0.033972           
         C24       1.0000    0.29230   0.52380   0.56150   Biso      1.000     C          0.174071  
         C25       1.0000    0.79720   0.64420   0.01180   Biso      1.000     C          -0.074754           
         C26       1.0000    0.85430   0.58050   0.15930   Biso      1.000     C          0.625523  
         C27       1.0000    0.74840   0.58420   0.11530   Biso      1.000     C          -0.33691  
         C28       1.0000    0.00800   0.64510   0.93410   Biso      1.000     C          -0.095676           
         C29       1.0000    0.04950   0.60360   0.88300   Biso      1.000     C          -0.030696           
         C30       1.0000    0.85380   0.56150   0.91470   Biso      1.000     C          0.172325  
         C31       1.0000    0.80900   0.01180   0.34400   Biso      1.000     C          -0.074338           
         C32       1.0000    0.01360   0.15930   0.26020   Biso      1.000     C          0.625354  
         C33       1.0000    0.86370   0.11530   0.30050   Biso      1.000     C          -0.33672  
         C34       1.0000    0.94210   0.93410   0.42080   Biso      1.000     C          -0.097275           
         C35       1.0000    0.93250   0.88300   0.51340   Biso      1.000     C          -0.031176           
         C36       1.0000    0.70280   0.01180   0.64420   Biso      1.000     C          -0.074733           
         C37       1.0000    0.27380   0.26020   0.58050   Biso      1.000     C          0.627023  
         C38       1.0000    0.84700   0.65600   0.35580   Biso      1.000     C          -0.074873           
         C39       1.0000    0.83580   0.69950   0.41580   Biso      1.000     C          -0.33592  
         C40       1.0000    0.66420   0.41580   0.69950   Biso      1.000     C          -0.335906           
         C41       1.0000    0.77380   0.41950   0.73980   Biso      1.000     C          0.627028  
         C42       1.0000    0.65300   0.35580   0.65600   Biso      1.000     C          -0.07492  
         C43       1.0000    0.26850   0.47620   0.08530   Biso      1.000     C          0.17429   
         C44       1.0000    0.43250   0.48660   0.11700   Biso      1.000     C          -0.031204           
         C45       1.0000    0.44210   0.57920   0.06590   Biso      1.000     C          -0.097259           
         C46       1.0000    0.36370   0.69950   0.88470   Biso      1.000     C          -0.336687           
         C47       1.0000    0.51360   0.73980   0.84070   Biso      1.000     C          0.625335  
         C48       1.0000    0.30900   0.65600   0.98820   Biso      1.000     C          -0.07434  
         C49       1.0000    0.35380   0.08530   0.43850   Biso      1.000     C          0.172307  
         C50       1.0000    0.54950   0.11700   0.39640   Biso      1.000     C          -0.030738           
         C51       1.0000    0.50800   0.06590   0.35490   Biso      1.000     C          -0.09563  
         C52       1.0000    0.24840   0.88470   0.41580   Biso      1.000     C          -0.336923           
         C53       1.0000    0.35430   0.84070   0.41950   Biso      1.000     C          0.625545  
         C54       1.0000    0.29720   0.98820   0.35580   Biso      1.000     C          -0.074734           
         C55       1.0000    0.86290   0.35490   0.57920   Biso      1.000     C          -0.093811           
         C56       1.0000    0.72620   0.73980   0.41950   Biso      1.000     C          0.627023  
         C57       1.0000    0.94590   0.39640   0.48660   Biso      1.000     C          -0.033987           
         C58       1.0000    0.95050   0.39640   0.11700   Biso      1.000     C          -0.030724           
         C59       1.0000    0.63710   0.57920   0.35490   Biso      1.000     C          -0.093815           
         C60       1.0000    0.55410   0.48660   0.39640   Biso      1.000     C          -0.033972           
         C61       1.0000    0.70770   0.47620   0.43850   Biso      1.000     C          0.174071  
         C62       1.0000    0.20280   0.35580   0.98820   Biso      1.000     C          -0.074754           
         C63       1.0000    0.14570   0.41950   0.84070   Biso      1.000     C          0.625523  
         C64       1.0000    0.25160   0.41580   0.88470   Biso      1.000     C          -0.33691  
         C65       1.0000    0.99200   0.35490   0.06590   Biso      1.000     C          -0.095649           
         C66       1.0000    0.15300   0.34400   0.64420   Biso      1.000     C          -0.074873           
         C67       1.0000    0.14620   0.43850   0.08530   Biso      1.000     C          0.172325  
         C68       1.0000    0.19100   0.98820   0.65600   Biso      1.000     C          -0.074338           
         C69       1.0000    0.98640   0.84070   0.73980   Biso      1.000     C          0.625353  
         C70       1.0000    0.13630   0.88470   0.69950   Biso      1.000     C          -0.33672  
         C71       1.0000    0.05790   0.06590   0.57920   Biso      1.000     C          -0.097248           
         C72       1.0000    0.79230   0.43850   0.47620   Biso      1.000     C          0.174066  
         Cd1       1.0000    0.99300   0.48600   0.25700   Biso      1.000     Cd          0.912692  
         Cd2       1.0000    0.25000   0.25700   0.25700   Biso      1.000     Cd          0.912677  
         Cd3       1.0000    0.50700   0.25700   0.48600   Biso      1.000     Cd          0.912692  
         Cd4       1.0000    0.00700   0.51400   0.74300   Biso      1.000     Cd          0.912692  
         Cd5       1.0000    0.75000   0.74300   0.74300   Biso      1.000     Cd          0.912677  
         Cd6       1.0000    0.49300   0.74300   0.51400   Biso      1.000     Cd          0.912692  
         H1        1.0000    0.19780   0.86650   0.48220   Biso      1.000     H          0.137936  
         H2        1.0000    0.30520   0.39090   0.85500   Biso      1.000     H          0.141057  
         H3        1.0000    0.30220   0.48220   0.86650   Biso      1.000     H          0.137939  
         H4        1.0000    0.94490   0.31580   0.04780   Biso      1.000     H          0.134882  
         H5        1.0000    0.86860   0.39020   0.14050   Biso      1.000     H          0.115918  
         H6        1.0000    0.28070   0.00870   0.63270   Biso      1.000     H          0.107448  
         H7        1.0000    0.16540   0.00510   0.70680   Biso      1.000     H          0.121001  
         H8        1.0000    0.16020   0.85500   0.75410   Biso      1.000     H          0.140374  
         H9        1.0000    0.16870   0.86650   0.65130   Biso      1.000     H          0.13786   
         H10       1.0000    0.99270   0.04780   0.63640   Biso      1.000     H          0.135319  
         H11       1.0000    0.00910   0.14050   0.46930   Biso      1.000     H          0.116571  
         H12       1.0000    0.22800   0.00870   0.35860   Biso      1.000     H          0.108196  
         H13       1.0000    0.33970   0.00510   0.28810   Biso      1.000     H          0.12133   
         H14       1.0000    0.19480   0.85500   0.39090   Biso      1.000     H          0.14106   
         H15       1.0000    0.41430   0.60910   0.24590   Biso      1.000     H          0.13999   
         H16       1.0000    0.16030   0.28810   0.00510   Biso      1.000     H          0.121331  
         H17       1.0000    0.27200   0.35860   0.00870   Biso      1.000     H          0.108197  
         H18       1.0000    0.47840   0.46930   0.39020   Biso      1.000     H          0.117491  
         H19       1.0000    0.62910   0.63640   0.31580   Biso      1.000     H          0.134374  
         H20       1.0000    0.50910   0.53070   0.85950   Biso      1.000     H          0.116574  
         H21       1.0000    0.49270   0.36360   0.95220   Biso      1.000     H          0.135329  
         H22       1.0000    0.66870   0.34870   0.13350   Biso      1.000     H          0.137858  
         H23       1.0000    0.66020   0.24590   0.14500   Biso      1.000     H          0.140371  
         H24       1.0000    0.66540   0.29320   0.99490   Biso      1.000     H          0.120994  
         H25       1.0000    0.78070   0.36730   0.99130   Biso      1.000     H          0.107448  
         H26       1.0000    0.55510   0.04780   0.31580   Biso      1.000     H          0.134872  
         H27       1.0000    0.36860   0.85950   0.60980   Biso      1.000     H          0.115927  
         H28       1.0000    0.80220   0.13350   0.51780   Biso      1.000     H          0.137936  
         H29       1.0000    0.80520   0.14500   0.60910   Biso      1.000     H          0.14106   
         H30       1.0000    0.91340   0.63270   0.35860   Biso      1.000     H          0.107907  
         H31       1.0000    0.87220   0.70680   0.28810   Biso      1.000     H          0.120747  
         H32       1.0000    0.91430   0.75410   0.39090   Biso      1.000     H          0.14      
         H33       1.0000    0.82000   0.65130   0.48220   Biso      1.000     H          0.137587  
         H34       1.0000    0.44490   0.95220   0.68420   Biso      1.000     H          0.134874  
         H35       1.0000    0.63140   0.14050   0.39020   Biso      1.000     H          0.115929  
         H36       1.0000    0.33460   0.70680   0.00510   Biso      1.000     H          0.120994  
         H37       1.0000    0.41340   0.64140   0.36730   Biso      1.000     H          0.107924  
         H38       1.0000    0.05510   0.68420   0.95220   Biso      1.000     H          0.134883  
         H39       1.0000    0.69780   0.51780   0.13350   Biso      1.000     H          0.137939  
         H40       1.0000    0.69480   0.60910   0.14500   Biso      1.000     H          0.141057  
         H41       1.0000    0.83970   0.71190   0.99490   Biso      1.000     H          0.121331  
         H42       1.0000    0.72800   0.64140   0.99130   Biso      1.000     H          0.108197  
         H43       1.0000    0.52160   0.53070   0.60980   Biso      1.000     H          0.117491  
         H44       1.0000    0.13140   0.60980   0.85950   Biso      1.000     H          0.115917  
         H45       1.0000    0.37090   0.36360   0.68420   Biso      1.000     H          0.134374  
         H46       1.0000    0.08570   0.24590   0.60910   Biso      1.000     H          0.14      
         H47       1.0000    0.12780   0.29320   0.71190   Biso      1.000     H          0.120747  
         H48       1.0000    0.32000   0.51780   0.34870   Biso      1.000     H          0.137592  
         H49       1.0000    0.12910   0.68420   0.36360   Biso      1.000     H          0.134378  
         H50       1.0000    0.97840   0.60980   0.53070   Biso      1.000     H          0.1175    
         H51       1.0000    0.08660   0.36730   0.64140   Biso      1.000     H          0.107907  
         H52       1.0000    0.18000   0.34870   0.51780   Biso      1.000     H          0.137587  
         H53       1.0000    0.71930   0.99130   0.36730   Biso      1.000     H          0.107448  
         H54       1.0000    0.83460   0.99490   0.29320   Biso      1.000     H          0.121001  
         H55       1.0000    0.83980   0.14500   0.24590   Biso      1.000     H          0.140374  
         H56       1.0000    0.33980   0.75410   0.85500   Biso      1.000     H          0.140371  
         H57       1.0000    0.33130   0.65130   0.86650   Biso      1.000     H          0.137858  
         H58       1.0000    0.50730   0.63640   0.04780   Biso      1.000     H          0.135328  
         H59       1.0000    0.49090   0.46930   0.14050   Biso      1.000     H          0.116575  
         H60       1.0000    0.58660   0.35860   0.63270   Biso      1.000     H          0.107924  
         H61       1.0000    0.62780   0.28810   0.70680   Biso      1.000     H          0.120759  
         H62       1.0000    0.58570   0.39090   0.75410   Biso      1.000     H          0.13999   
         H63       1.0000    0.68000   0.48220   0.65130   Biso      1.000     H          0.137592  
         H64       1.0000    0.87090   0.31580   0.63640   Biso      1.000     H          0.134378  
         H65       1.0000    0.02160   0.39020   0.46930   Biso      1.000     H          0.1175    
         H66       1.0000    0.66030   0.99490   0.71190   Biso      1.000     H          0.121331  
         H67       1.0000    0.77200   0.99130   0.64140   Biso      1.000     H          0.108196  
         H68       1.0000    0.99090   0.85950   0.53070   Biso      1.000     H          0.116569  
         H69       1.0000    0.00730   0.95220   0.36360   Biso      1.000     H          0.13532   
         H70       1.0000    0.83130   0.13350   0.34870   Biso      1.000     H          0.13786   
         H71       1.0000    0.21930   0.63270   0.00870   Biso      1.000     H          0.107448  
         H72       1.0000    0.37220   0.71190   0.29320   Biso      1.000     H          0.120759  
         N1        1.0000    0.17560   0.12970   0.42160   Biso      1.000     N          -0.332134           
         N2        1.0000    0.90280   0.44870   0.42160   Biso      1.000     N          -0.331487           
         N3        1.0000    0.76450   0.38100   0.57380   Biso      1.000     N          0.043361  
         N4        1.0000    0.32440   0.42160   0.12970   Biso      1.000     N          -0.332126           
         N5        1.0000    0.33830   0.57380   0.04520   Biso      1.000     N          0.044765  
         N6        1.0000    0.38350   0.04520   0.38100   Biso      1.000     N          0.043451  
         N7        1.0000    0.16170   0.04520   0.57380   Biso      1.000     N          0.044759  
         N8        1.0000    0.45410   0.12970   0.44870   Biso      1.000     N          -0.331496           
         N9        1.0000    0.11650   0.38100   0.04520   Biso      1.000     N          0.043467  
         N10       1.0000    0.73550   0.57380   0.38100   Biso      1.000     N          0.043358  
         N11       1.0000    0.09720   0.55130   0.57840   Biso      1.000     N          -0.331487           
         N12       1.0000    0.23550   0.61900   0.42620   Biso      1.000     N          0.043361  
         N13       1.0000    0.67560   0.57840   0.87030   Biso      1.000     N          -0.332129           
         N14       1.0000    0.66170   0.42620   0.95480   Biso      1.000     N          0.044767  
         N15       1.0000    0.54590   0.87030   0.55130   Biso      1.000     N          -0.331499           
         N16       1.0000    0.61650   0.95480   0.61900   Biso      1.000     N          0.043454  
         N17       1.0000    0.82440   0.87030   0.57840   Biso      1.000     N          -0.332137           
         N18       1.0000    0.83830   0.95480   0.42620   Biso      1.000     N          0.044761  
         N19       1.0000    0.95410   0.55130   0.87030   Biso      1.000     N          -0.331507           
         N20       1.0000    0.88350   0.61900   0.95480   Biso      1.000     N          0.04347   
         N21       1.0000    0.59720   0.42160   0.44870   Biso      1.000     N          -0.331495           
         N22       1.0000    0.40280   0.57840   0.55130   Biso      1.000     N          -0.331495           
         N23       1.0000    0.04590   0.44870   0.12970   Biso      1.000     N          -0.331504           
         N24       1.0000    0.26450   0.42620   0.61900   Biso      1.000     N          0.043358  
         O1        1.0000    0.18570   0.50660   0.78170   Biso      1.000     O          -0.595722           
         O2        1.0000    0.04480   0.36710   0.85130   Biso      1.000     O          -0.591949           
         O3        1.0000    0.96740   0.78170   0.71170   Biso      1.000     O          -0.59564  
         O4        1.0000    0.89610   0.85130   0.78160   Biso      1.000     O          -0.591718           
         O5        1.0000    0.45520   0.85130   0.36710   Biso      1.000     O          -0.591963           
         O6        1.0000    0.53260   0.71170   0.78170   Biso      1.000     O          -0.595633           
         O7        1.0000    0.60390   0.78160   0.85130   Biso      1.000     O          -0.591722           
         O8        1.0000    0.82090   0.50660   0.71170   Biso      1.000     O          -0.59579  
         O9        1.0000    0.82230   0.36710   0.78160   Biso      1.000     O          -0.59315  
         O10       1.0000    0.31430   0.78170   0.50660   Biso      1.000     O          -0.59572  
         O11       1.0000    0.32090   0.28830   0.49340   Biso      1.000     O          -0.595792           
         O12       1.0000    0.32230   0.21840   0.63290   Biso      1.000     O          -0.593146           
         O13       1.0000    0.81430   0.49340   0.21830   Biso      1.000     O          -0.595722           
         O14       1.0000    0.95520   0.63290   0.14870   Biso      1.000     O          -0.591949           
         O15       1.0000    0.03260   0.21830   0.28830   Biso      1.000     O          -0.59564  
         O16       1.0000    0.10390   0.14870   0.21840   Biso      1.000     O          -0.591718           
         O17       1.0000    0.68570   0.21830   0.49340   Biso      1.000     O          -0.595719           
         O18       1.0000    0.54480   0.14870   0.63290   Biso      1.000     O          -0.591962           
         O19       1.0000    0.46740   0.28830   0.21830   Biso      1.000     O          -0.595632           
         O20       1.0000    0.39610   0.21840   0.14870   Biso      1.000     O          -0.591722           
         O21       1.0000    0.17910   0.49340   0.28830   Biso      1.000     O          -0.59579  
         O22       1.0000    0.17770   0.63290   0.21840   Biso      1.000     O          -0.59315  
         O23       1.0000    0.67770   0.78160   0.36710   Biso      1.000     O          -0.593146           
         O24       1.0000    0.67910   0.71170   0.50660   Biso      1.000     O          -0.595792 