
##########################################################################
#               Crystallographic Information Format file
#               Produced by PyCifRW module
#
#  This is a CIF file.  CIF has been adopted by the International
#  Union of Crystallography as the standard for data archiving and
#  transmission.
#
#  For information on this file format, follow the CIF links at
#  http://www.iucr.org
##########################################################################

data_image0

_cell_length_a                          12.0047
_cell_length_b                          10.9563
_cell_length_c                          21.0767
_cell_angle_alpha                       90
_cell_angle_beta                        106.389
_cell_angle_gamma                       90
_symmetry_space_group_name_H-M          'P 1'
_symmetry_int_tables_number             1
loop_
  _symmetry_equiv_pos_as_xyz
         'x, y, z' 
loop_
  _atom_site_label
  _atom_site_occupancy
  _atom_site_fract_x
  _atom_site_fract_y
  _atom_site_fract_z
  _atom_site_thermal_displace_type
  _atom_site_B_iso_or_equiv
  _atom_site_type_symbol
  _atom_site_charge
         C1        1.0000    0.54040   0.24700   0.99160   Biso      1.000     C          0.604992  
         C2        1.0000    0.37270   0.18350   0.26180   Biso      1.000     C          -0.22105100000000003          
         C3        1.0000    0.37420   0.16780   0.32720   Biso      1.000     C          0.2843    
         C4        1.0000    0.47690   0.16710   0.37680   Biso      1.000     C          -0.21957  
         C5        1.0000    0.58180   0.17690   0.36094   Biso      1.000     C          -0.003237           
         C6        1.0000    0.58120   0.19320   0.29590   Biso      1.000     C          -0.19049000000000002          
         C7        1.0000    0.47730   0.20030   0.24616   Biso      1.000     C          -0.00011100000000000001       
         C8        1.0000    0.47170   0.23760   0.17640   Biso      1.000     C          0.625803  
         C9        1.0000    0.36280   0.56800   0.07950   Biso      1.000     C          0.668359  
         C10       1.0000    0.63720   0.43200   0.92050   Biso      1.000     C          0.668359  
         C11       1.0000    0.76160   0.13830   0.87470   Biso      1.000     C          -0.219437           
         C12       1.0000    0.71590   0.05260   0.90830   Biso      1.000     C          -0.051108           
         C13       1.0000    0.64260   0.08810   0.94540   Biso      1.000     C          -0.129687           
         C14       1.0000    0.61840   0.21110   0.95070   Biso      1.000     C          -0.037757           
         C15       1.0000    0.66370   0.29860   0.91710   Biso      1.000     C          -0.15621300000000002          
         C16       1.0000    0.73440   0.26040   0.87870   Biso      1.000     C          0.241675  
         C17       1.0000    0.19220   0.32590   0.91700   Biso      1.000     C          0.6181979999999999  
         C18       1.0000    0.87270   0.31650   0.76180   Biso      1.000     C          -0.22105100000000003          
         C19       1.0000    0.87420   0.33220   0.82720   Biso      1.000     C          0.2843    
         C20       1.0000    0.97690   0.33290   0.87680   Biso      1.000     C          -0.21957  
         C21       1.0000    0.69220   0.17410   0.41700   Biso      1.000     C          0.6181979999999999  
         C22       1.0000    0.08180   0.32310   0.86094   Biso      1.000     C          -0.003237           
         C23       1.0000    0.23440   0.23960   0.37870   Biso      1.000     C          0.241675  
         C24       1.0000    0.11840   0.28890   0.45070   Biso      1.000     C          -0.037757           
         C25       1.0000    0.23840   0.86170   0.12530   Biso      1.000     C          -0.219437           
         C26       1.0000    0.28410   0.94740   0.09170   Biso      1.000     C          -0.051108           
         C27       1.0000    0.35740   0.91190   0.05460   Biso      1.000     C          -0.129687           
         C28       1.0000    0.38160   0.78890   0.04930   Biso      1.000     C          -0.037757           
         C29       1.0000    0.33630   0.70140   0.08290   Biso      1.000     C          -0.15621300000000002          
         C30       1.0000    0.26560   0.73960   0.12130   Biso      1.000     C          0.241675  
         C31       1.0000    0.80780   0.67410   0.08300   Biso      1.000     C          0.6181979999999999  
         C32       1.0000    0.12730   0.68350   0.23820   Biso      1.000     C          -0.22105100000000003          
         C33       1.0000    0.12580   0.66780   0.17280   Biso      1.000     C          0.2843    
         C34       1.0000    0.02310   0.66710   0.12320   Biso      1.000     C          -0.21957  
         C35       1.0000    0.91820   0.67690   0.13906   Biso      1.000     C          -0.003237           
         C36       1.0000    0.91880   0.69320   0.20410   Biso      1.000     C          -0.19049000000000002          
         C37       1.0000    0.02270   0.70030   0.25384   Biso      1.000     C          -0.00011100000000000001       
         C38       1.0000    0.02830   0.73760   0.32360   Biso      1.000     C          0.625803  
         C39       1.0000    0.04040   0.25300   0.49160   Biso      1.000     C          0.604992  
         C40       1.0000    0.13720   0.06800   0.42050   Biso      1.000     C          0.668359  
         C41       1.0000    0.26160   0.36170   0.37470   Biso      1.000     C          -0.219437           
         C42       1.0000    0.21590   0.44740   0.40830   Biso      1.000     C          -0.051108           
         C43       1.0000    0.14260   0.41190   0.44540   Biso      1.000     C          -0.129687           
         C44       1.0000    0.16370   0.20140   0.41710   Biso      1.000     C          -0.15621300000000002          
         C45       1.0000    0.08120   0.30680   0.79590   Biso      1.000     C          -0.19049000000000002          
         C46       1.0000    0.45960   0.75300   0.00840   Biso      1.000     C          0.604992  
         C47       1.0000    0.97170   0.26240   0.67640   Biso      1.000     C          0.625803  
         C48       1.0000    0.73840   0.63830   0.62530   Biso      1.000     C          -0.219437           
         C49       1.0000    0.78410   0.55260   0.59170   Biso      1.000     C          -0.051108           
         C50       1.0000    0.85740   0.58810   0.55460   Biso      1.000     C          -0.129687           
         C51       1.0000    0.88160   0.71110   0.54930   Biso      1.000     C          -0.037757           
         C52       1.0000    0.83630   0.79860   0.58290   Biso      1.000     C          -0.15621300000000002          
         C53       1.0000    0.97730   0.29970   0.74616   Biso      1.000     C          -0.00011100000000000001       
         C54       1.0000    0.86280   0.93200   0.57950   Biso      1.000     C          0.668359  
         C55       1.0000    0.30780   0.82590   0.58300   Biso      1.000     C          0.6181979999999999  
         C56       1.0000    0.62580   0.83220   0.67280   Biso      1.000     C          0.284298  
         C57       1.0000    0.52310   0.83290   0.62320   Biso      1.000     C          -0.21957  
         C58       1.0000    0.41820   0.82310   0.63906   Biso      1.000     C          -0.003237           
         C59       1.0000    0.41880   0.80680   0.70410   Biso      1.000     C          -0.19049000000000002          
         C60       1.0000    0.52270   0.79970   0.75384   Biso      1.000     C          -0.00011100000000000001       
         C61       1.0000    0.52830   0.76240   0.82360   Biso      1.000     C          0.625803  
         C62       1.0000    0.62730   0.81650   0.73820   Biso      1.000     C          -0.22104899999999997          
         C63       1.0000    0.95960   0.74700   0.50840   Biso      1.000     C          0.604992  
         C64       1.0000    0.76560   0.76040   0.62130   Biso      1.000     C          0.241675  
         Ca1       1.0000    0.35622   0.55455   0.87272   Biso      1.000     Ca          1.5329700000000002  
         Ca2       1.0000    0.85622   0.94545   0.37272   Biso      1.000     Ca          1.5329700000000002  
         Ca3       1.0000    0.64378   0.44545   0.12728   Biso      1.000     Ca          1.5329700000000002  
         Ca4       1.0000    0.14378   0.05455   0.62728   Biso      1.000     Ca          1.5329700000000002  
         Cd1       1.0000    0.86395   0.18064   0.53971   Biso      1.000     Cd          0.983303  
         Cd2       1.0000    0.13605   0.81936   0.46029   Biso      1.000     Cd          0.983303  
         Cd3       1.0000    0.63605   0.68064   0.96029   Biso      1.000     Cd          0.983303  
         Cd4       1.0000    0.36395   0.31936   0.03971   Biso      1.000     Cd          0.983303  
         H1        1.0000    0.19730   0.68300   0.27140   Biso      1.000     H          0.150094  
         H2        1.0000    0.31030   0.38580   0.34970   Biso      1.000     H          0.133582  
         H3        1.0000    0.52340   0.83990   0.57930   Biso      1.000     H          0.152862  
         H4        1.0000    0.23430   0.52940   0.40610   Biso      1.000     H          0.118148  
         H5        1.0000    0.10970   0.47020   0.46670   Biso      1.000     H          0.128391  
         H6        1.0000    0.80270   0.31700   0.72860   Biso      1.000     H          0.150094  
         H7        1.0000    0.69730   0.81700   0.77140   Biso      1.000     H          0.150094  
         H8        1.0000    0.34890   0.80050   0.71460   Biso      1.000     H          0.110872  
         H9        1.0000    0.02340   0.66010   0.07930   Biso      1.000     H          0.152862  
         H10       1.0000    0.30270   0.18300   0.22860   Biso      1.000     H          0.150094  
         H11       1.0000    0.15110   0.30050   0.78540   Biso      1.000     H          0.110872  
         H12       1.0000    0.81030   0.11420   0.84970   Biso      1.000     H          0.133582  
         H13       1.0000    0.84890   0.69950   0.21460   Biso      1.000     H          0.110872  
         H14       1.0000    0.89030   0.52980   0.53330   Biso      1.000     H          0.128391  
         H15       1.0000    0.60970   0.02980   0.96670   Biso      1.000     H          0.128391  
         H16       1.0000    0.65110   0.19950   0.28540   Biso      1.000     H          0.110872  
         H17       1.0000    0.76570   0.47060   0.59390   Biso      1.000     H          0.118148  
         H18       1.0000    0.68970   0.61420   0.65030   Biso      1.000     H          0.133582  
         H19       1.0000    0.39030   0.97020   0.03330   Biso      1.000     H          0.128391  
         H20       1.0000    0.26570   0.02940   0.09390   Biso      1.000     H          0.118148  
         H21       1.0000    0.73430   0.97060   0.90610   Biso      1.000     H          0.118148  
         H22       1.0000    0.18970   0.88580   0.15030   Biso      1.000     H          0.133582  
         H23       1.0000    0.47660   0.16010   0.42070   Biso      1.000     H          0.152862  
         H24       1.0000    0.97660   0.33990   0.92070   Biso      1.000     H          0.152862  
         O1        1.0000    0.94410   0.84870   0.47812   Biso      1.000     O          -0.688034           
         O2        1.0000    0.55590   0.34870   0.02188   Biso      1.000     O          -0.688034           
         O3        1.0000    0.45830   0.17710   0.99329   Biso      1.000     O          -0.517684           
         O4        1.0000    0.69030   0.22640   0.46972   Biso      1.000     O          -0.5069279999999999           
         O5        1.0000    0.78190   0.00040   0.54950   Biso      1.000     O          -0.545028           
         O6        1.0000    0.96340   0.96860   0.60697   Biso      1.000     O          -0.698016           
         O7        1.0000    0.73190   0.84950   0.65890   Biso      1.000     O          -0.232296           
         O8        1.0000    0.30970   0.77360   0.53028   Biso      1.000     O          -0.5069279999999999           
         O9        1.0000    0.22040   0.88120   0.59088   Biso      1.000     O          -0.704142           
         O10       1.0000    0.43810   0.72430   0.83504   Biso      1.000     O          -0.700911           
         O11       1.0000    0.62720   0.76880   0.86510   Biso      1.000     O          -0.531848           
         O12       1.0000    0.04170   0.67710   0.50671   Biso      1.000     O          -0.517684           
         O13       1.0000    0.44410   0.65130   0.97812   Biso      1.000     O          -0.688034           
         O14       1.0000    0.12720   0.73120   0.36510   Biso      1.000     O          -0.531848           
         O15       1.0000    0.28190   0.49960   0.04950   Biso      1.000     O          -0.545028           
         O16       1.0000    0.26810   0.15050   0.34110   Biso      1.000     O          -0.232296           
         O17       1.0000    0.03660   0.03140   0.39303   Biso      1.000     O          -0.698016           
         O18       1.0000    0.21810   0.99960   0.45050   Biso      1.000     O          -0.545028           
         O19       1.0000    0.95830   0.32290   0.49329   Biso      1.000     O          -0.517684           
         O20       1.0000    0.05590   0.15130   0.52188   Biso      1.000     O          -0.688034           
         O21       1.0000    0.56190   0.27570   0.16496   Biso      1.000     O          -0.700911           
         O22       1.0000    0.87280   0.26880   0.63490   Biso      1.000     O          -0.531848           
         O23       1.0000    0.06190   0.22430   0.66496   Biso      1.000     O          -0.700911           
         O24       1.0000    0.27960   0.38120   0.90912   Biso      1.000     O          -0.704142           
         O25       1.0000    0.19030   0.27360   0.96972   Biso      1.000     O          -0.5069279999999999           
         O26       1.0000    0.76810   0.34950   0.84110   Biso      1.000     O          -0.232296           
         O27       1.0000    0.53660   0.46860   0.89303   Biso      1.000     O          -0.698016           
         O28       1.0000    0.37280   0.23120   0.13490   Biso      1.000     O          -0.531848           
         O29       1.0000    0.77960   0.11880   0.40912   Biso      1.000     O          -0.704142           
         O30       1.0000    0.93810   0.77570   0.33504   Biso      1.000     O          -0.700911           
         O31       1.0000    0.72040   0.61880   0.09088   Biso      1.000     O          -0.704142           
         O32       1.0000    0.80970   0.72640   0.03028   Biso      1.000     O          -0.5069279999999999           
         O33       1.0000    0.23190   0.65050   0.15890   Biso      1.000     O          -0.232296           
         O34       1.0000    0.46340   0.53140   0.10697   Biso      1.000     O          -0.698016           
         O35       1.0000    0.54170   0.82290   0.00671   Biso      1.000     O          -0.517684           
         O36       1.0000    0.71810   0.50040   0.95050   Biso      1.000     O          -0.545028 