
##########################################################################
#               Crystallographic Information Format file
#               Produced by PyCifRW module
#
#  This is a CIF file.  CIF has been adopted by the International
#  Union of Crystallography as the standard for data archiving and
#  transmission.
#
#  For information on this file format, follow the CIF links at
#  http://www.iucr.org
##########################################################################

data_image0

_cell_length_a                          10.2726
_cell_length_b                          13.3346
_cell_length_c                          15.2745
_cell_angle_alpha                       100.554
_cell_angle_beta                        107.524
_cell_angle_gamma                       99.341
_symmetry_space_group_name_H-M          'P 1'
_symmetry_int_tables_number             1
loop_
  _symmetry_equiv_pos_as_xyz
         'x, y, z' 
loop_
  _atom_site_label
  _atom_site_occupancy
  _atom_site_fract_x
  _atom_site_fract_y
  _atom_site_fract_z
  _atom_site_thermal_displace_type
  _atom_site_B_iso_or_equiv
  _atom_site_type_symbol
  _atom_site_charge
         Ba1       1.0000    0.52788   0.82020   0.49016   Biso      1.000     Ba          1.530248  
         Ba2       1.0000    0.08845   0.92503   0.39152   Biso      1.000     Ba          1.4836    
         Ba3       1.0000    0.91155   0.07497   0.60848   Biso      1.000     Ba          1.4836049999999998  
         Ba4       1.0000    0.47212   0.17980   0.50984   Biso      1.000     Ba          1.53025   
         C1        1.0000    0.33790   0.29340   0.80000   Biso      1.000     C          -0.044493           
         C2        1.0000    0.23900   0.31020   0.84340   Biso      1.000     C          -0.144077           
         C3        1.0000    0.29620   0.24870   0.69480   Biso      1.000     C          0.641892  
         C4        1.0000    0.61070   0.07920   0.84320   Biso      1.000     C          0.245302  
         C5        1.0000    0.30070   0.24910   0.27750   Biso      1.000     C          0.633206  
         C6        1.0000    0.53790   0.07760   0.90620   Biso      1.000     C          -0.206508           
         C7        1.0000    0.47860   0.64760   0.04720   Biso      1.000     C          -0.056772           
         C8        1.0000    0.28450   0.61720   0.27610   Biso      1.000     C          0.664083  
         C9        1.0000    0.30920   0.98970   0.60730   Biso      1.000     C          0.606839  
         C10       1.0000    0.60610   0.95320   0.12870   Biso      1.000     C          -0.055927           
         C11       1.0000    0.39420   0.01960   0.71120   Biso      1.000     C          -0.046403           
         C12       1.0000    0.52110   0.68480   0.14430   Biso      1.000     C          -0.126567           
         C13       1.0000    0.90520   0.26370   0.11880   Biso      1.000     C          -0.048811           
         C14       1.0000    0.96310   0.00270   0.16270   Biso      1.000     C          0.631246  
         C15       1.0000    0.28440   0.34490   0.94190   Biso      1.000     C          0.242736  
         C16       1.0000    0.42380   0.36700   0.99610   Biso      1.000     C          -0.222336           
         C17       1.0000    0.67730   0.98070   0.22480   Biso      1.000     C          -0.13436900000000002          
         C18       1.0000    0.92520   0.37030   0.17930   Biso      1.000     C          0.593879  
         C19       1.0000    0.54120   0.04940   0.74590   Biso      1.000     C          -0.155595           
         C20       1.0000    0.29040   0.43070   0.27040   Biso      1.000     C          -0.113476           
         C21       1.0000    0.08540   0.29750   0.78970   Biso      1.000     C          0.6184189999999999  
         C22       1.0000    0.82430   0.13750   0.96980   Biso      1.000     C          0.23940999999999998           
         C23       1.0000    0.92390   0.08470   0.11100   Biso      1.000     C          -0.041359           
         C24       1.0000    0.94310   0.18540   0.16350   Biso      1.000     C          -0.12651099999999998          
         C25       1.0000    0.26600   0.50800   0.22220   Biso      1.000     C          -0.014939           
         C26       1.0000    0.86330   0.06040   0.01360   Biso      1.000     C          -0.19880899999999999          
         C27       1.0000    0.21730   0.38210   0.07700   Biso      1.000     C          0.274309  
         C28       1.0000    0.84670   0.24010   0.02000   Biso      1.000     C          -0.14216900000000002          
         C29       1.0000    0.24040   0.30430   0.12410   Biso      1.000     C          -0.205796           
         C30       1.0000    0.22680   0.48240   0.12440   Biso      1.000     C          -0.177117           
         C31       1.0000    0.63040   0.04980   0.68330   Biso      1.000     C          0.645792  
         C32       1.0000    0.60580   0.98040   0.28880   Biso      1.000     C          -0.0464   
         C33       1.0000    0.32270   0.01930   0.77520   Biso      1.000     C          -0.134363           
         C34       1.0000    0.03690   0.99730   0.83730   Biso      1.000     C          0.631254  
         C35       1.0000    0.78270   0.61790   0.92300   Biso      1.000     C          0.274311  
         C36       1.0000    0.15330   0.75990   0.98000   Biso      1.000     C          -0.14161600000000002          
         C37       1.0000    0.75960   0.69570   0.87590   Biso      1.000     C          -0.205806           
         C38       1.0000    0.09480   0.73630   0.88120   Biso      1.000     C          -0.049063999999999997         
         C39       1.0000    0.72340   0.67060   0.77800   Biso      1.000     C          -0.037238           
         C40       1.0000    0.77320   0.51760   0.87560   Biso      1.000     C          -0.17711500000000002          
         C41       1.0000    0.52140   0.35240   0.95280   Biso      1.000     C          -0.056792999999999996         
         C42       1.0000    0.13670   0.93960   0.98640   Biso      1.000     C          -0.198827           
         C43       1.0000    0.73400   0.49200   0.77780   Biso      1.000     C          -0.01494  
         C44       1.0000    0.05690   0.81460   0.83650   Biso      1.000     C          -0.12651500000000002          
         C45       1.0000    0.39390   0.04680   0.87130   Biso      1.000     C          -0.055929           
         C46       1.0000    0.07610   0.91530   0.88900   Biso      1.000     C          -0.041395999999999995         
         C47       1.0000    0.69080   0.01030   0.39270   Biso      1.000     C          0.606839  
         C48       1.0000    0.91460   0.70250   0.21030   Biso      1.000     C          0.618408  
         C49       1.0000    0.70960   0.56930   0.72960   Biso      1.000     C          -0.113474           
         C50       1.0000    0.17570   0.86250   0.03020   Biso      1.000     C          0.23917399999999997           
         C51       1.0000    0.45880   0.95060   0.25410   Biso      1.000     C          -0.155599           
         C52       1.0000    0.46210   0.92240   0.09380   Biso      1.000     C          -0.20651999999999998          
         C53       1.0000    0.69930   0.75090   0.72250   Biso      1.000     C          0.633206  
         C54       1.0000    0.38930   0.92080   0.15680   Biso      1.000     C          0.24530300000000002           
         C55       1.0000    0.70380   0.75130   0.30520   Biso      1.000     C          0.641889  
         C56       1.0000    0.76100   0.68980   0.15660   Biso      1.000     C          -0.144068           
         C57       1.0000    0.66210   0.70660   0.20000   Biso      1.000     C          -0.044499000000000004         
         C58       1.0000    0.71550   0.38280   0.72390   Biso      1.000     C          0.664089  
         C59       1.0000    0.27660   0.32940   0.22200   Biso      1.000     C          -0.037233999999999996         
         C60       1.0000    0.36960   0.95020   0.31670   Biso      1.000     C          0.645788  
         C61       1.0000    0.47890   0.31520   0.85570   Biso      1.000     C          -0.12658  
         C62       1.0000    0.57620   0.63300   0.00390   Biso      1.000     C          -0.22235100000000002          
         C63       1.0000    0.07480   0.62970   0.82070   Biso      1.000     C          0.593892  
         C64       1.0000    0.71560   0.65510   0.05810   Biso      1.000     C          0.24274899999999996           
         H1        1.0000    0.34420   0.04460   0.91300   Biso      1.000     H          0.10219400000000001           
         H2        1.0000    0.98160   0.20100   0.22920   Biso      1.000     H          0.124271  
         H3        1.0000    0.54540   0.30450   0.82720   Biso      1.000     H          0.108299  
         H4        1.0000    0.84910   0.99250   0.97800   Biso      1.000     H          0.142741  
         H5        1.0000    0.31630   0.44730   0.33610   Biso      1.000     H          0.131798  
         H6        1.0000    0.20700   0.53300   0.09100   Biso      1.000     H          0.156623  
         H7        1.0000    0.61610   0.36760   0.98900   Biso      1.000     H          0.104754  
         H8        1.0000    0.45210   0.39160   0.06150   Biso      1.000     H          0.12959500000000002           
         H9        1.0000    0.22520   0.00020   0.75280   Biso      1.000     H          0.10488199999999999           
         H10       1.0000    0.58590   0.09710   0.97110   Biso      1.000     H          0.126399  
         H11       1.0000    0.94900   0.87200   0.14200   Biso      1.000     H          0.43555900000000003           
         H12       1.0000    0.15640   0.15830   0.52010   Biso      1.000     H          0.430541  
         H13       1.0000    0.76820   0.76370   0.90900   Biso      1.000     H          0.147484  
         H14       1.0000    0.79300   0.46700   0.90900   Biso      1.000     H          0.15662   
         H15       1.0000    0.15090   0.00750   0.02200   Biso      1.000     H          0.142739  
         H16       1.0000    0.01840   0.79900   0.77080   Biso      1.000     H          0.124268  
         H17       1.0000    0.68370   0.55270   0.66390   Biso      1.000     H          0.1318    
         H18       1.0000    0.54790   0.60840   0.93850   Biso      1.000     H          0.129593  
         H19       1.0000    0.41410   0.90290   0.02890   Biso      1.000     H          0.126389  
         H20       1.0000    0.77480   0.99980   0.24720   Biso      1.000     H          0.10488199999999999           
         H21       1.0000    0.45460   0.69550   0.17280   Biso      1.000     H          0.108294  
         H22       1.0000    0.65580   0.95540   0.08700   Biso      1.000     H          0.10219400000000001           
         H23       1.0000    0.38390   0.63240   0.01100   Biso      1.000     H          0.10476600000000001           
         H24       1.0000    0.05100   0.12800   0.85800   Biso      1.000     H          0.43556000000000006           
         H25       1.0000    0.84360   0.84170   0.47990   Biso      1.000     H          0.430541  
         H26       1.0000    0.86880   0.82260   0.56490   Biso      1.000     H          0.465236  
         H27       1.0000    0.23180   0.23630   0.09100   Biso      1.000     H          0.14748499999999998           
         H28       1.0000    0.90700   0.49900   0.17400   Biso      1.000     H          0.392467  
         H29       1.0000    0.13120   0.17740   0.43510   Biso      1.000     H          0.465235  
         H30       1.0000    0.73800   0.26900   0.75100   Biso      1.000     H          0.493066  
         H31       1.0000    0.31300   0.12000   0.26100   Biso      1.000     H          0.408543  
         H32       1.0000    0.09300   0.50100   0.82600   Biso      1.000     H          0.392462  
         H33       1.0000    0.26200   0.73100   0.24900   Biso      1.000     H          0.493065  
         H34       1.0000    0.68700   0.88000   0.73900   Biso      1.000     H          0.408544  
         O1        1.0000    0.88700   0.43880   0.13060   Biso      1.000     O          -0.498138           
         O2        1.0000    0.33080   0.26880   0.36270   Biso      1.000     O          -0.552952           
         O3        1.0000    0.28710   0.15580   0.22510   Biso      1.000     O          -0.5154489999999999           
         O4        1.0000    0.24900   0.68010   0.22130   Biso      1.000     O          -0.5919449999999999           
         O5        1.0000    0.32960   0.64330   0.36210   Biso      1.000     O          -0.562879           
         O6        1.0000    0.17870   0.35860   0.97860   Biso      1.000     O          -0.208546           
         O7        1.0000    0.17330   0.14050   0.46900   Biso      1.000     O          -0.8946940000000001           
         O8        1.0000    0.37430   0.98610   0.54800   Biso      1.000     O          -0.7044630000000001           
         O9        1.0000    0.04930   0.37160   0.75730   Biso      1.000     O          -0.540666           
         O10       1.0000    0.66760   0.13210   0.65930   Biso      1.000     O          -0.661255           
         O11       1.0000    0.97010   0.39090   0.26470   Biso      1.000     O          -0.473785           
         O12       1.0000    0.00220   0.21360   0.78290   Biso      1.000     O          -0.645109           
         O13       1.0000    0.75550   0.11060   0.87173   Biso      1.000     O          -0.215102           
         O14       1.0000    0.16890   0.20810   0.64890   Biso      1.000     O          -0.662593           
         O15       1.0000    0.39130   0.25320   0.65950   Biso      1.000     O          -0.648352           
         O16       1.0000    0.32870   0.03190   0.33910   Biso      1.000     O          -0.671017           
         O17       1.0000    0.92710   0.90810   0.10900   Biso      1.000     O          -0.529139           
         O18       1.0000    0.07290   0.09190   0.89100   Biso      1.000     O          -0.529125           
         O19       1.0000    0.97820   0.97400   0.75190   Biso      1.000     O          -0.543809           
         O20       1.0000    0.82670   0.85950   0.53100   Biso      1.000     O          -0.8946940000000001           
         O21       1.0000    0.66920   0.73120   0.63730   Biso      1.000     O          -0.55295  
         O22       1.0000    0.71290   0.84420   0.77490   Biso      1.000     O          -0.515444           
         O23       1.0000    0.75100   0.31990   0.77870   Biso      1.000     O          -0.591966           
         O24       1.0000    0.67040   0.35670   0.63790   Biso      1.000     O          -0.562875           
         O25       1.0000    0.82130   0.64140   0.02140   Biso      1.000     O          -0.20853400000000002          
         O26       1.0000    0.83110   0.79190   0.35110   Biso      1.000     O          -0.662592           
         O27       1.0000    0.60870   0.74680   0.34050   Biso      1.000     O          -0.648354           
         O28       1.0000    0.95070   0.62840   0.24270   Biso      1.000     O          -0.5406529999999999           
         O29       1.0000    0.99780   0.78640   0.21710   Biso      1.000     O          -0.645107           
         O30       1.0000    0.24450   0.88940   0.12827   Biso      1.000     O          -0.21508200000000002          
         O31       1.0000    0.11300   0.56120   0.86940   Biso      1.000     O          -0.49809899999999996          
         O32       1.0000    0.02990   0.60910   0.73530   Biso      1.000     O          -0.47380200000000006          
         O33       1.0000    0.33240   0.86790   0.34070   Biso      1.000     O          -0.661259           
         O34       1.0000    0.62570   0.01390   0.45200   Biso      1.000     O          -0.7044630000000001           
         O35       1.0000    0.82170   0.02790   0.41570   Biso      1.000     O          -0.636263           
         O36       1.0000    0.17830   0.97210   0.58430   Biso      1.000     O          -0.636263           
         O37       1.0000    0.02180   0.02600   0.24810   Biso      1.000     O          -0.543812           
         O38       1.0000    0.67130   0.96810   0.66090   Biso      1.000     O          -0.671016 