
##########################################################################
#               Crystallographic Information Format file
#               Produced by PyCifRW module
#
#  This is a CIF file.  CIF has been adopted by the International
#  Union of Crystallography as the standard for data archiving and
#  transmission.
#
#  For information on this file format, follow the CIF links at
#  http://www.iucr.org
##########################################################################

data_image0

_cell_length_a                          10.2724
_cell_length_b                          13.3126
_cell_length_c                          15.2949
_cell_angle_alpha                       100.307
_cell_angle_beta                        107.572
_cell_angle_gamma                       100.414
_symmetry_space_group_name_H-M          'P 1'
_symmetry_int_tables_number             1
loop_
  _symmetry_equiv_pos_as_xyz
         'x, y, z' 
loop_
  _atom_site_label
  _atom_site_occupancy
  _atom_site_fract_x
  _atom_site_fract_y
  _atom_site_fract_z
  _atom_site_thermal_displace_type
  _atom_site_B_iso_or_equiv
  _atom_site_type_symbol
  _atom_site_charge
         Ba1       1.0000    0.52643   0.82036   0.98816   Biso      1.000     Ba          1.527104  
         Ba2       1.0000    0.47357   0.17964   0.01184   Biso      1.000     Ba          1.527104  
         Ba3       1.0000    0.08678   0.92475   0.89034   Biso      1.000     Ba          1.4991079999999999  
         Ba4       1.0000    0.91322   0.07525   0.10966   Biso      1.000     Ba          1.4991079999999999  
         C1        1.0000    0.09390   0.73650   0.38110   Biso      1.000     C          -0.008686           
         C2        1.0000    0.15120   0.76020   0.47880   Biso      1.000     C          -0.194378           
         C3        1.0000    0.94460   0.18650   0.66410   Biso      1.000     C          -0.14227  
         C4        1.0000    0.03650   0.99740   0.33740   Biso      1.000     C          0.634983  
         C5        1.0000    0.07620   0.63020   0.32080   Biso      1.000     C          0.579298  
         C6        1.0000    0.92540   0.08470   0.61150   Biso      1.000     C          -0.028221           
         C7        1.0000    0.53760   0.07130   0.40460   Biso      1.000     C          -0.207904           
         C8        1.0000    0.86440   0.06000   0.51320   Biso      1.000     C          -0.21785300000000002          
         C9        1.0000    0.82590   0.13820   0.46920   Biso      1.000     C          0.27561599999999997           
         C10       1.0000    0.63230   0.04940   0.18320   Biso      1.000     C          0.643599  
         C11       1.0000    0.31030   0.98500   0.10590   Biso      1.000     C          0.598855  
         C12       1.0000    0.54170   0.04630   0.24500   Biso      1.000     C          -0.162055           
         C13       1.0000    0.61180   0.07590   0.34190   Biso      1.000     C          0.242904  
         C14       1.0000    0.70880   0.65430   0.55590   Biso      1.000     C          0.22801300000000002           
         C15       1.0000    0.39480   0.03600   0.36880   Biso      1.000     C          -0.050494           
         C16       1.0000    0.39430   0.01150   0.20960   Biso      1.000     C          -0.038054000000000004         
         C17       1.0000    0.05540   0.81350   0.33590   Biso      1.000     C          -0.142269           
         C18       1.0000    0.69670   0.75280   0.80150   Biso      1.000     C          0.64044   
         C19       1.0000    0.56810   0.63260   0.50050   Biso      1.000     C          -0.21768099999999999          
         C20       1.0000    0.90720   0.70200   0.70810   Biso      1.000     C          0.615187  
         C21       1.0000    0.47100   0.64850   0.54370   Biso      1.000     C          -0.078098           
         C22       1.0000    0.77730   0.61800   0.42160   Biso      1.000     C          0.27217600000000003           
         C23       1.0000    0.51460   0.68720   0.64020   Biso      1.000     C          -0.137208           
         C24       1.0000    0.32250   0.00620   0.27230   Biso      1.000     C          -0.127091           
         C25       1.0000    0.65450   0.70730   0.69670   Biso      1.000     C          -0.044328           
         C26       1.0000    0.71860   0.67050   0.27640   Biso      1.000     C          -0.033821           
         C27       1.0000    0.70900   0.56970   0.22790   Biso      1.000     C          -0.11408900000000001          
         C28       1.0000    0.73630   0.49320   0.27730   Biso      1.000     C          -0.009054000000000001         
         C29       1.0000    0.77220   0.51790   0.37540   Biso      1.000     C          -0.18628699999999998          
         C30       1.0000    0.69380   0.75060   0.22160   Biso      1.000     C          0.632079  
         C31       1.0000    0.72130   0.38470   0.22280   Biso      1.000     C          0.63015   
         C32       1.0000    0.75280   0.69470   0.37400   Biso      1.000     C          -0.20841500000000002          
         C33       1.0000    0.07460   0.91530   0.38850   Biso      1.000     C          -0.028221           
         C34       1.0000    0.75370   0.68850   0.65330   Biso      1.000     C          -0.153811           
         C35       1.0000    0.13560   0.94000   0.48680   Biso      1.000     C          -0.21785300000000002          
         C36       1.0000    0.34550   0.29270   0.30330   Biso      1.000     C          -0.044328           
         C37       1.0000    0.48540   0.31280   0.35980   Biso      1.000     C          -0.137217           
         C38       1.0000    0.52900   0.35150   0.45630   Biso      1.000     C          -0.078091           
         C39       1.0000    0.43190   0.36740   0.49950   Biso      1.000     C          -0.21768200000000001          
         C40       1.0000    0.29120   0.34570   0.44410   Biso      1.000     C          0.228015  
         C41       1.0000    0.24630   0.31150   0.34670   Biso      1.000     C          -0.153811           
         C42       1.0000    0.30330   0.24720   0.19850   Biso      1.000     C          0.64044   
         C43       1.0000    0.09280   0.29800   0.29190   Biso      1.000     C          0.615187  
         C44       1.0000    0.22270   0.38200   0.57840   Biso      1.000     C          0.272177  
         C45       1.0000    0.24720   0.30530   0.62600   Biso      1.000     C          -0.208419           
         C46       1.0000    0.28140   0.32950   0.72360   Biso      1.000     C          -0.033817           
         C47       1.0000    0.29100   0.43030   0.77210   Biso      1.000     C          -0.11409000000000001          
         C48       1.0000    0.90610   0.26350   0.61890   Biso      1.000     C          -0.008686           
         C49       1.0000    0.22780   0.48210   0.62460   Biso      1.000     C          -0.18628699999999998          
         C50       1.0000    0.92380   0.36980   0.67920   Biso      1.000     C          0.579298  
         C51       1.0000    0.26370   0.50680   0.72270   Biso      1.000     C          -0.009054000000000001         
         C52       1.0000    0.30620   0.24940   0.77840   Biso      1.000     C          0.632078  
         C53       1.0000    0.17410   0.86180   0.53080   Biso      1.000     C          0.275618  
         C54       1.0000    0.27870   0.61530   0.77720   Biso      1.000     C          0.63015   
         C55       1.0000    0.36770   0.95060   0.81680   Biso      1.000     C          0.643599  
         C56       1.0000    0.60570   0.98850   0.79040   Biso      1.000     C          -0.038053           
         C57       1.0000    0.67750   0.99380   0.72770   Biso      1.000     C          -0.127095           
         C58       1.0000    0.96350   0.00260   0.66260   Biso      1.000     C          0.6349819999999999  
         C59       1.0000    0.68970   0.01500   0.89410   Biso      1.000     C          0.598854  
         C60       1.0000    0.60520   0.96400   0.63120   Biso      1.000     C          -0.05049  
         C61       1.0000    0.45830   0.95370   0.75500   Biso      1.000     C          -0.162056           
         C62       1.0000    0.38820   0.92410   0.65810   Biso      1.000     C          0.242904  
         C63       1.0000    0.84880   0.23980   0.52120   Biso      1.000     C          -0.194376           
         C64       1.0000    0.46240   0.92870   0.59540   Biso      1.000     C          -0.207905           
         H1        1.0000    0.94610   0.85390   0.63380   Biso      1.000     H          0.410342  
         H2        1.0000    0.74330   0.26440   0.24020   Biso      1.000     H          0.400319  
         H3        1.0000    0.69030   0.88810   0.24120   Biso      1.000     H          0.396396  
         H4        1.0000    0.82580   0.29200   0.49070   Biso      1.000     H          0.151066  
         H5        1.0000    0.58510   0.09210   0.46970   Biso      1.000     H          0.12529200000000001           
         H6        1.0000    0.84950   0.99200   0.47750   Biso      1.000     H          0.14247100000000001           
         H7        1.0000    0.68420   0.55300   0.16230   Biso      1.000     H          0.133659  
         H8        1.0000    0.13200   0.17400   0.93600   Biso      1.000     H          0.469501  
         H9        1.0000    0.79230   0.46770   0.40910   Biso      1.000     H          0.154246  
         H10       1.0000    0.17900   0.17100   0.02650   Biso      1.000     H          0.43881000000000003           
         H11       1.0000    0.22470   0.98240   0.24950   Biso      1.000     H          0.109774  
         H12       1.0000    0.34470   0.03180   0.41010   Biso      1.000     H          0.099491  
         H13       1.0000    0.75920   0.76230   0.40690   Biso      1.000     H          0.14453   
         H14       1.0000    0.98350   0.20290   0.72980   Biso      1.000     H          0.125908  
         H15       1.0000    0.11040   0.51030   0.32640   Biso      1.000     H          0.409958  
         H16       1.0000    0.37580   0.63290   0.50740   Biso      1.000     H          0.10348800000000001           
         H17       1.0000    0.55160   0.29980   0.33190   Biso      1.000     H          0.10346400000000001           
         H18       1.0000    0.62420   0.36710   0.49260   Biso      1.000     H          0.103487  
         H19       1.0000    0.46050   0.39230   0.56490   Biso      1.000     H          0.12803599999999998           
         H20       1.0000    0.24080   0.23770   0.59310   Biso      1.000     H          0.144531  
         H21       1.0000    0.31580   0.44700   0.83770   Biso      1.000     H          0.133659  
         H22       1.0000    0.20770   0.53230   0.59090   Biso      1.000     H          0.154246  
         H23       1.0000    0.77530   0.01760   0.75050   Biso      1.000     H          0.109774  
         H24       1.0000    0.65530   0.96820   0.58990   Biso      1.000     H          0.09949   
         H25       1.0000    0.41490   0.90790   0.53030   Biso      1.000     H          0.12529200000000001           
         H26       1.0000    0.53950   0.60770   0.43510   Biso      1.000     H          0.12803599999999998           
         H27       1.0000    0.01650   0.79710   0.27020   Biso      1.000     H          0.125908  
         H28       1.0000    0.17420   0.70800   0.50930   Biso      1.000     H          0.151066  
         H29       1.0000    0.82100   0.82900   0.97350   Biso      1.000     H          0.438809  
         H30       1.0000    0.86800   0.82600   0.06400   Biso      1.000     H          0.469501  
         H31       1.0000    0.30970   0.11190   0.75880   Biso      1.000     H          0.396396  
         H32       1.0000    0.15050   0.00800   0.52250   Biso      1.000     H          0.14247100000000001           
         H33       1.0000    0.88960   0.48970   0.67360   Biso      1.000     H          0.409958  
         H34       1.0000    0.44840   0.70020   0.66810   Biso      1.000     H          0.10346300000000001           
         H35       1.0000    0.05390   0.14610   0.36620   Biso      1.000     H          0.410342  
         H36       1.0000    0.25670   0.73560   0.75980   Biso      1.000     H          0.400319  
         O1        1.0000    0.81410   0.63960   0.51990   Biso      1.000     O          -0.21906399999999998          
         O2        1.0000    0.70420   0.84350   0.27420   Biso      1.000     O          -0.508739           
         O3        1.0000    0.11130   0.56140   0.36900   Biso      1.000     O          -0.504578           
         O4        1.0000    0.66410   0.73090   0.13620   Biso      1.000     O          -0.557669           
         O5        1.0000    0.67950   0.35830   0.13750   Biso      1.000     O          -0.553443           
         O6        1.0000    0.75800   0.32260   0.27970   Biso      1.000     O          -0.479721           
         O7        1.0000    0.88870   0.43860   0.63100   Biso      1.000     O          -0.504578           
         O8        1.0000    0.17800   0.96720   0.08300   Biso      1.000     O          -0.631135           
         O9        1.0000    0.37490   0.98420   0.04730   Biso      1.000     O          -0.70024  
         O10       1.0000    0.67030   0.13250   0.15980   Biso      1.000     O          -0.659808           
         O11       1.0000    0.67230   0.96800   0.16020   Biso      1.000     O          -0.666053           
         O12       1.0000    0.75760   0.11190   0.37130   Biso      1.000     O          -0.21437399999999998          
         O13       1.0000    0.92660   0.90770   0.60830   Biso      1.000     O          -0.5118560000000001           
         O14       1.0000    0.02040   0.02560   0.74740   Biso      1.000     O          -0.542429           
         O15       1.0000    0.96590   0.38940   0.76480   Biso      1.000     O          -0.48713900000000004          
         O16       1.0000    0.99450   0.78620   0.71580   Biso      1.000     O          -0.6707989999999999           
         O17       1.0000    0.94020   0.62740   0.74110   Biso      1.000     O          -0.5753149999999999           
         O18       1.0000    0.32050   0.64170   0.86250   Biso      1.000     O          -0.553442           
         O19       1.0000    0.33590   0.26910   0.86380   Biso      1.000     O          -0.557669           
         O20       1.0000    0.29580   0.15650   0.72580   Biso      1.000     O          -0.508739           
         O21       1.0000    0.18590   0.36040   0.48010   Biso      1.000     O          -0.21906399999999998          
         O22       1.0000    0.00550   0.21380   0.28420   Biso      1.000     O          -0.6707989999999999           
         O23       1.0000    0.05980   0.37260   0.25890   Biso      1.000     O          -0.5753149999999999           
         O24       1.0000    0.24200   0.67740   0.72030   Biso      1.000     O          -0.479721           
         O25       1.0000    0.82630   0.85980   0.02850   Biso      1.000     O          -0.9101809999999999           
         O26       1.0000    0.39840   0.25290   0.16350   Biso      1.000     O          -0.65054  
         O27       1.0000    0.17460   0.20590   0.15160   Biso      1.000     O          -0.663384           
         O28       1.0000    0.82200   0.03280   0.91700   Biso      1.000     O          -0.631135           
         O29       1.0000    0.62510   0.01580   0.95270   Biso      1.000     O          -0.70024  
         O30       1.0000    0.32970   0.86750   0.84020   Biso      1.000     O          -0.659808           
         O31       1.0000    0.32770   0.03200   0.83980   Biso      1.000     O          -0.666053           
         O32       1.0000    0.24240   0.88810   0.62870   Biso      1.000     O          -0.21437399999999998          
         O33       1.0000    0.07340   0.09230   0.39170   Biso      1.000     O          -0.5118550000000001           
         O34       1.0000    0.82540   0.79410   0.84840   Biso      1.000     O          -0.663384           
         O35       1.0000    0.60160   0.74710   0.83650   Biso      1.000     O          -0.650541           
         O36       1.0000    0.17370   0.14020   0.97150   Biso      1.000     O          -0.9101809999999999           
         O37       1.0000    0.03410   0.61060   0.23520   Biso      1.000     O          -0.48713900000000004          
         O38       1.0000    0.97960   0.97440   0.25260   Biso      1.000     O          -0.542429 