
##########################################################################
#               Crystallographic Information Format file
#               Produced by PyCifRW module
#
#  This is a CIF file.  CIF has been adopted by the International
#  Union of Crystallography as the standard for data archiving and
#  transmission.
#
#  For information on this file format, follow the CIF links at
#  http://www.iucr.org
##########################################################################

data_image0

_cell_length_a                          8.487
_cell_length_b                          17.924
_cell_length_c                          26.5616
_cell_angle_alpha                       87.8328
_cell_angle_beta                        80.8076
_cell_angle_gamma                       76.3057
_symmetry_space_group_name_H-M          'P 1'
_symmetry_int_tables_number             1
loop_
  _symmetry_equiv_pos_as_xyz
         'x, y, z' 
loop_
  _atom_site_label
  _atom_site_occupancy
  _atom_site_fract_x
  _atom_site_fract_y
  _atom_site_fract_z
  _atom_site_thermal_displace_type
  _atom_site_B_iso_or_equiv
  _atom_site_type_symbol
  _atom_site_charge
         C1        1.0000    0.41580   0.64940   0.75360   Biso      1.000     C          0.014822  
         C2        1.0000    0.82200   0.76040   0.68960   Biso      1.000     C          -0.086538           
         C3        1.0000    0.09830   0.72140   0.61820   Biso      1.000     C          -0.099177           
         C4        1.0000    0.88550   0.38420   0.50080   Biso      1.000     C          -0.015301           
         C5        1.0000    0.12000   0.88680   0.96760   Biso      1.000     C          -0.110587           
         C6        1.0000    0.85670   0.92020   0.09280   Biso      1.000     C          0.006779  
         C7        1.0000    0.73920   0.93160   0.23840   Biso      1.000     C          0.350262  
         C8        1.0000    0.71250   0.23380   0.30520   Biso      1.000     C          -0.088137           
         C9        1.0000    0.96740   0.70120   0.28020   Biso      1.000     C          -0.014288           
         C10       1.0000    0.64270   0.37780   0.28920   Biso      1.000     C          0.624303  
         C11       1.0000    0.25370   0.28920   0.14360   Biso      1.000     C          -0.105385           
         C12       1.0000    0.52050   0.61360   0.20620   Biso      1.000     C          0.675524  
         C13       1.0000    0.88030   0.42020   0.59280   Biso      1.000     C          0.005584  
         C14       1.0000    0.33310   0.71280   0.73100   Biso      1.000     C          -0.112059           
         C15       1.0000    0.06810   0.62220   0.28920   Biso      1.000     C          0.623099  
         C16       1.0000    0.85260   0.40260   0.64440   Biso      1.000     C          -0.129977           
         C17       1.0000    0.82080   0.89860   0.93060   Biso      1.000     C          -0.082002           
         C18       1.0000    0.93590   0.28720   0.73100   Biso      1.000     C          -0.116831           
         C19       1.0000    0.76210   0.60080   0.41440   Biso      1.000     C          -0.104769           
         C20       1.0000    0.51990   0.10060   0.09860   Biso      1.000     C          0.336189  
         C21       1.0000    0.03090   0.60060   0.59860   Biso      1.000     C          0.334716  
         C22       1.0000    0.17260   0.01460   0.07920   Biso      1.000     C          -0.105606           
         C23       1.0000    0.13960   0.09360   0.89760   Biso      1.000     C          -0.034857           
         C24       1.0000    0.75240   0.29880   0.28020   Biso      1.000     C          -0.015612           
         C25       1.0000    0.29290   0.21080   0.64360   Biso      1.000     C          -0.101917           
         C26       1.0000    0.79590   0.78720   0.23100   Biso      1.000     C          -0.114676           
         C27       1.0000    0.99760   0.67080   0.62960   Biso      1.000     C          0.014396  
         C28       1.0000    0.33240   0.73960   0.18960   Biso      1.000     C          -0.083967           
         C29       1.0000    0.30180   0.80740   0.16500   Biso      1.000     C          -0.100948           
         C30       1.0000    0.60270   0.71080   0.14360   Biso      1.000     C          -0.106576           
         C31       1.0000    0.31210   0.22140   0.11820   Biso      1.000     C          -0.096145           
         C32       1.0000    0.08120   0.05200   0.18200   Biso      1.000     C          -0.002635           
         C33       1.0000    0.96940   0.53300   0.61680   Biso      1.000     C          0.015923  
         C34       1.0000    0.91240   0.11320   0.96760   Biso      1.000     C          -0.108388           
         C35       1.0000    0.41380   0.46700   0.61680   Biso      1.000     C          0.012511  
         C36       1.0000    0.93120   0.14940   0.25360   Biso      1.000     C          0.019985  
         C37       1.0000    0.84080   0.43160   0.73840   Biso      1.000     C          0.34861   
         C38       1.0000    0.88410   0.88640   0.70620   Biso      1.000     C          0.675312  
         C39       1.0000    0.62680   0.57640   0.34140   Biso      1.000     C          0.684851  
         C40       1.0000    0.40970   0.11360   0.70620   Biso      1.000     C          0.67363   
         C41       1.0000    0.83020   0.37360   0.55760   Biso      1.000     C          0.356341  
         C42       1.0000    0.69630   0.26620   0.80520   Biso      1.000     C          -0.09095  
         C43       1.0000    0.27330   0.38640   0.20620   Biso      1.000     C          0.673105  
         C44       1.0000    0.00520   0.09740   0.14440   Biso      1.000     C          -0.134659           
         C45       1.0000    0.11290   0.89920   0.91440   Biso      1.000     C          -0.10432  
         C46       1.0000    0.37280   0.32920   0.62960   Biso      1.000     C          0.01304   
         C47       1.0000    0.33350   0.78480   0.74280   Biso      1.000     C          -0.098452           
         C48       1.0000    0.98320   0.40640   0.39760   Biso      1.000     C          -0.035908           
         C49       1.0000    0.61920   0.59360   0.39760   Biso      1.000     C          -0.036945           
         C50       1.0000    0.86830   0.71520   0.24280   Biso      1.000     C          -0.098813           
         C51       1.0000    0.92390   0.80940   0.67960   Biso      1.000     C          -0.009862           
         C52       1.0000    0.75680   0.61320   0.46760   Biso      1.000     C          -0.106171           
         C53       1.0000    0.06350   0.78920   0.64360   Biso      1.000     C          -0.101964           
         C54       1.0000    0.93720   0.48540   0.57920   Biso      1.000     C          -0.10614  
         C55       1.0000    0.41840   0.82920   0.12960   Biso      1.000     C          0.015451  
         C56       1.0000    0.24860   0.10140   0.93060   Biso      1.000     C          -0.084112           
         C57       1.0000    0.49850   0.73380   0.80520   Biso      1.000     C          -0.084787           
         C58       1.0000    0.97270   0.10080   0.91440   Biso      1.000     C          -0.104232           
         C59       1.0000    0.47580   0.30740   0.66500   Biso      1.000     C          -0.097414           
         C60       1.0000    0.53320   0.19260   0.16500   Biso      1.000     C          -0.095781           
         C61       1.0000    0.47800   0.26040   0.18960   Biso      1.000     C          -0.08748  
         C62       1.0000    0.74820   0.98540   0.07920   Biso      1.000     C          -0.106344           
         C63       1.0000    0.77560   0.38680   0.46760   Biso      1.000     C          -0.110065           
         C64       1.0000    0.61370   0.61580   0.50080   Biso      1.000     C          -0.014038           
         C65       1.0000    0.96280   0.90640   0.89760   Biso      1.000     C          -0.036453           
         C66       1.0000    0.97950   0.88420   0.00080   Biso      1.000     C          -0.017071           
         C67       1.0000    0.19060   0.11040   0.98240   Biso      1.000     C          -0.132014           
         C68       1.0000    0.20750   0.98640   0.16720   Biso      1.000     C          -0.13531  
         C69       1.0000    0.39650   0.19060   0.67960   Biso      1.000     C          -0.011884           
         C70       1.0000    0.94390   0.51360   0.66720   Biso      1.000     C          -0.132603           
         C71       1.0000    0.82700   0.88960   0.98240   Biso      1.000     C          -0.130511           
         C72       1.0000    0.41860   0.79880   0.78020   Biso      1.000     C          -0.016028           
         C73       1.0000    0.62530   0.01360   0.16720   Biso      1.000     C          -0.132016           
         C74       1.0000    0.28350   0.27860   0.61820   Biso      1.000     C          -0.100562           
         C75       1.0000    0.82350   0.39920   0.41440   Biso      1.000     C          -0.104297           
         C76       1.0000    0.97310   0.21280   0.23100   Biso      1.000     C          -0.116307           
         C77       1.0000    0.33710   0.30940   0.17960   Biso      1.000     C          -0.009458           
         C78       1.0000    0.95320   0.92360   0.84140   Biso      1.000     C          0.686544  
         C79       1.0000    0.03180   0.42360   0.34140   Biso      1.000     C          0.68708   
         C80       1.0000    0.81520   0.85060   0.25360   Biso      1.000     C          0.01885   
         C81       1.0000    0.37050   0.39940   0.59860   Biso      1.000     C          0.338385  
         C82       1.0000    0.25240   0.96700   0.11680   Biso      1.000     C          0.013     
         C83       1.0000    0.80120   0.20120   0.78020   Biso      1.000     C          -0.014294           
         C84       1.0000    0.61220   0.62640   0.55760   Biso      1.000     C          0.353169  
         C85       1.0000    0.48360   0.51460   0.57920   Biso      1.000     C          -0.105101           
         C86       1.0000    0.01970   0.11580   0.00080   Biso      1.000     C          -0.015841           
         C87       1.0000    0.52690   0.57980   0.59280   Biso      1.000     C          0.003802  
         C88       1.0000    0.44030   0.87780   0.78920   Biso      1.000     C          0.623289  
         C89       1.0000    0.83060   0.35060   0.75360   Biso      1.000     C          0.01937   
         C90       1.0000    0.05100   0.38960   0.48240   Biso      1.000     C          -0.132729           
         C91       1.0000    0.85040   0.90260   0.14440   Biso      1.000     C          -0.134179           
         C92       1.0000    0.46660   0.61040   0.48240   Biso      1.000     C          -0.129757           
         C93       1.0000    0.95380   0.12640   0.05760   Biso      1.000     C          0.355068  
         C94       1.0000    0.43480   0.55200   0.68200   Biso      1.000     C          -0.007155           
         C95       1.0000    0.02240   0.06840   0.23840   Biso      1.000     C          0.346132  
         C96       1.0000    0.05050   0.07980   0.09280   Biso      1.000     C          0.005266  
         C97       1.0000    0.73680   0.94800   0.18200   Biso      1.000     C          -0.007132           
         C98       1.0000    0.92370   0.21520   0.74280   Biso      1.000     C          -0.097397           
         C99       1.0000    0.80380   0.15980   0.29220   Biso      1.000     C          -0.101367           
         C100      1.0000    0.63080   0.03300   0.11680   Biso      1.000     C          0.013174  
         C101      1.0000    0.38150   0.89940   0.09860   Biso      1.000     C          0.337973  
         C102      1.0000    0.48330   0.69060   0.17960   Biso      1.000     C          -0.008755           
         C103      1.0000    0.85920   0.69260   0.66500   Biso      1.000     C          -0.097791           
         C104      1.0000    0.42080   0.56840   0.73840   Biso      1.000     C          0.351573  
         C105      1.0000    0.50300   0.59740   0.64440   Biso      1.000     C          -0.134546           
         C106      1.0000    0.88320   0.44800   0.68200   Biso      1.000     C          -0.007616           
         C107      1.0000    0.20540   0.07640   0.84140   Biso      1.000     C          0.687137  
         C108      1.0000    0.10000   0.39860   0.43060   Biso      1.000     C          -0.083407           
         C109      1.0000    0.98230   0.76620   0.30520   Biso      1.000     C          -0.087347           
         C110      1.0000    0.98860   0.87360   0.05760   Biso      1.000     C          0.354672  
         C111      1.0000    0.48840   0.23960   0.68960   Biso      1.000     C          -0.089461           
         C112      1.0000    0.88890   0.28480   0.24280   Biso      1.000     C          -0.099176           
         C113      1.0000    0.45200   0.17080   0.12960   Biso      1.000     C          0.012848  
         C114      1.0000    0.46940   0.60140   0.43060   Biso      1.000     C          -0.085236           
         C115      1.0000    0.71360   0.34020   0.79220   Biso      1.000     C          -0.101044           
         C116      1.0000    0.49420   0.65980   0.79220   Biso      1.000     C          -0.09955  
         C117      1.0000    0.90400   0.84020   0.29220   Biso      1.000     C          -0.103766           
         C118      1.0000    0.77050   0.12220   0.78920   Biso      1.000     C          0.624763  
         C119      1.0000    0.56970   0.77860   0.11820   Biso      1.000     C          -0.099414           
         C120      1.0000    0.38890   0.48640   0.66720   Biso      1.000     C          -0.131887           
         H1        1.0000    0.95490   0.49880   0.54500   Biso      1.000     H          0.119366  
         H2        1.0000    0.20630   0.90240   0.89160   Biso      1.000     H          0.125331  
         H3        1.0000    0.91310   0.88220   0.31000   Biso      1.000     H          0.128783  
         H4        1.0000    0.27310   0.70580   0.70580   Biso      1.000     H          0.095218  
         H5        1.0000    0.20850   0.39920   0.41780   Biso      1.000     H          0.133805  
         H6        1.0000    0.90210   0.09760   0.89160   Biso      1.000     H          0.124281  
         H7        1.0000    0.26000   0.95620   0.19180   Biso      1.000     H          0.126502  
         H8        1.0000    0.21680   0.29100   0.59320   Biso      1.000     H          0.117885  
         H9        1.0000    0.92210   0.14060   0.15420   Biso      1.000     H          0.113361  
         H10       1.0000    0.04600   0.75960   0.33120   Biso      1.000     H          0.124664  
         H11       1.0000    0.50010   0.50120   0.54500   Biso      1.000     H          0.119199  
         H12       1.0000    0.77690   0.11780   0.31000   Biso      1.000     H          0.128165  
         H13       1.0000    0.13400   0.82220   0.63660   Biso      1.000     H          0.113658  
         H14       1.0000    0.37370   0.60080   0.41780   Biso      1.000     H          0.134731  
         H15       1.0000    0.81270   0.35940   0.65420   Biso      1.000     H          0.11144   
         H16       1.0000    0.54530   0.61780   0.81000   Biso      1.000     H          0.127742  
         H17       1.0000    0.70620   0.67780   0.13660   Biso      1.000     H          0.116343  
         H18       1.0000    0.53880   0.34040   0.67240   Biso      1.000     H          0.104137  
         H19       1.0000    0.25060   0.72640   0.21360   Biso      1.000     H          0.112389  
         H20       1.0000    0.84980   0.61940   0.47980   Biso      1.000     H          0.122324  
         H21       1.0000    0.74970   0.40240   0.39160   Biso      1.000     H          0.124644  
         H22       1.0000    0.55940   0.22640   0.71360   Biso      1.000     H          0.116221  
         H23       1.0000    0.80100   0.11940   0.97980   Biso      1.000     H          0.124942  
         H24       1.0000    0.99860   0.17420   0.72560   Biso      1.000     H          0.083608  
         H25       1.0000    0.72890   0.79420   0.20580   Biso      1.000     H          0.096126  
         H26       1.0000    0.54820   0.04380   0.19180   Biso      1.000     H          0.125055  
         H27       1.0000    0.37020   0.61260   0.50500   Biso      1.000     H          0.118243  
         H28       1.0000    0.62280   0.24040   0.33120   Biso      1.000     H          0.125344  
         H29       1.0000    0.35770   0.10080   0.91780   Biso      1.000     H          0.133633  
         H30       1.0000    0.73280   0.88740   0.00500   Biso      1.000     H          0.119255  
         H31       1.0000    0.53580   0.27360   0.21360   Biso      1.000     H          0.114002  
         H32       1.0000    0.67040   0.38060   0.47980   Biso      1.000     H          0.125075  
         H33       1.0000    0.20370   0.00120   0.04500   Biso      1.000     H          0.118994  
         H34       1.0000    0.53310   0.64060   0.65420   Biso      1.000     H          0.114932  
         H35       1.0000    0.85160   0.67420   0.22560   Biso      1.000     H          0.08347   
         H36       1.0000    0.64900   0.79100   0.09320   Biso      1.000     H          0.117076  
         H37       1.0000    0.02110   0.29420   0.70580   Biso      1.000     H          0.096289  
         H38       1.0000    0.22940   0.17780   0.63660   Biso      1.000     H          0.115763  
         H39       1.0000    0.72450   0.89920   0.91780   Biso      1.000     H          0.132978  
         H40       1.0000    0.55560   0.74040   0.83120   Biso      1.000     H          0.122635  
         H41       1.0000    0.96620   0.54380   0.69180   Biso      1.000     H          0.124406  
         H42       1.0000    0.06530   0.20580   0.20580   Biso      1.000     H          0.096121  
         H43       1.0000    0.34200   0.45620   0.69180   Biso      1.000     H          0.124692  
         H44       1.0000    0.62920   0.15960   0.17240   Biso      1.000     H          0.103836  
         H45       1.0000    0.78880   0.65960   0.67240   Biso      1.000     H          0.10331   
         H46       1.0000    0.92280   0.32580   0.22560   Biso      1.000     H          0.084195  
         H47       1.0000    0.92370   0.85940   0.15420   Biso      1.000     H          0.114009  
         H48       1.0000    0.72700   0.77360   0.71360   Biso      1.000     H          0.113875  
         H49       1.0000    0.15720   0.32220   0.13660   Biso      1.000     H          0.116134  
         H50       1.0000    0.19840   0.84040   0.17240   Biso      1.000     H          0.104802  
         H51       1.0000    0.61320   0.25960   0.83120   Biso      1.000     H          0.12603   
         H52       1.0000    0.21920   0.88060   0.97980   Biso      1.000     H          0.126739  
         H53       1.0000    0.25780   0.20900   0.09320   Biso      1.000     H          0.114472  
         H54       1.0000    0.64470   0.38220   0.81000   Biso      1.000     H          0.128813  
         H55       1.0000    0.27580   0.82580   0.72560   Biso      1.000     H          0.083672  
         H56       1.0000    0.19000   0.70900   0.59320   Biso      1.000     H          0.116962  
         H57       1.0000    0.75130   0.99880   0.04500   Biso      1.000     H          0.118812  
         H58       1.0000    0.85870   0.59760   0.39160   Biso      1.000     H          0.125432  
         H59       1.0000    0.26220   0.11260   0.00500   Biso      1.000     H          0.119765  
         H60       1.0000    0.12480   0.38740   0.50500   Biso      1.000     H          0.120699  
         O1        1.0000    0.94280   0.42420   0.31100   Biso      1.000     O          -0.643397           
         O2        1.0000    0.73150   0.91600   0.72360   Biso      1.000     O          -0.648643           
         O3        1.0000    0.06882   0.56676   0.26140   Biso      1.000     O          -0.776586           
         O4        1.0000    0.66990   0.58340   0.20740   Biso      1.000     O          -0.745693           
         O5        1.0000    0.74365   0.32980   0.56990   Biso      1.000     O          -0.389208           
         O6        1.0000    0.51630   0.38480   0.32300   Biso      1.000     O          -0.591411           
         O7        1.0000    0.00330   0.91660   0.70740   Biso      1.000     O          -0.745869           
         O8        1.0000    0.28930   0.08340   0.70740   Biso      1.000     O          -0.742606           
         O9        1.0000    0.12270   0.41660   0.20740   Biso      1.000     O          -0.74357  
         O10       1.0000    0.39750   0.58400   0.22360   Biso      1.000     O          -0.649047           
         O11       1.0000    0.48403   0.09760   0.05494   Biso      1.000     O          -0.389689           
         O12       1.0000    0.54490   0.08400   0.72360   Biso      1.000     O          -0.649676           
         O13       1.0000    0.10665   0.82980   0.06990   Biso      1.000     O          -0.387834           
         O14       1.0000    0.68860   0.98220   0.26940   Biso      1.000     O          -0.378093           
         O15       1.0000    0.66978   0.43324   0.26140   Biso      1.000     O          -0.777702           
         O16       1.0000    0.11700   0.07580   0.81100   Biso      1.000     O          -0.64483  
         O17       1.0000    0.65110   0.11520   0.82300   Biso      1.000     O          -0.592437           
         O18       1.0000    0.85302   0.06676   0.76140   Biso      1.000     O          -0.777556           
         O19       1.0000    0.42080   0.51780   0.76940   Biso      1.000     O          -0.37795  
         O20       1.0000    0.11343   0.59760   0.55494   Biso      1.000     O          -0.390362           
         O21       1.0000    0.52590   0.88480   0.82300   Biso      1.000     O          -0.592972           
         O22       1.0000    0.16070   0.61520   0.32300   Biso      1.000     O          -0.591477           
         O23       1.0000    0.68645   0.67020   0.56990   Biso      1.000     O          -0.386318           
         O24       1.0000    0.80550   0.94080   0.83280   Biso      1.000     O          -0.725134           
         O25       1.0000    0.33163   0.40240   0.55494   Biso      1.000     O          -0.39142  
         O26       1.0000    0.38558   0.93324   0.76140   Biso      1.000     O          -0.777017           
         O27       1.0000    0.17090   0.44080   0.33280   Biso      1.000     O          -0.725479           
         O28       1.0000    0.74620   0.57580   0.31100   Biso      1.000     O          -0.642298           
         O29       1.0000    0.36170   0.05920   0.83280   Biso      1.000     O          -0.724629           
         O30       1.0000    0.80980   0.48220   0.76940   Biso      1.000     O          -0.377189           
         O31       1.0000    0.82345   0.17020   0.06990   Biso      1.000     O          -0.38803  
         O32       1.0000    0.07200   0.92420   0.81100   Biso      1.000     O          -0.643522           
         O33       1.0000    0.46103   0.90240   0.05494   Biso      1.000     O          -0.391177           
         O34       1.0000    0.37890   0.41600   0.22360   Biso      1.000     O          -0.648802           
         O35       1.0000    0.49630   0.55920   0.33280   Biso      1.000     O          -0.72412  
         O36       1.0000    0.04200   0.01780   0.26940   Biso      1.000     O          -0.37564  
         Tb1       1.0000    0.35565   0.50000   0.28870   Biso      1.000     Tb          2.073774  
         Tb2       1.0000    0.60565   0.00000   0.78870   Biso      1.000     Tb          2.073781  
         Tb3       1.0000    0.13132   0.00000   0.73736   Biso      1.000     Tb          2.206621  
         Tb4       1.0000    0.88132   0.50000   0.23736   Biso      1.000     Tb          2.205579 