
##########################################################################
#               Crystallographic Information Format file
#               Produced by PyCifRW module
#
#  This is a CIF file.  CIF has been adopted by the International
#  Union of Crystallography as the standard for data archiving and
#  transmission.
#
#  For information on this file format, follow the CIF links at
#  http://www.iucr.org
##########################################################################

data_image0

_cell_length_a                          7.3781
_cell_length_b                          13.574
_cell_length_c                          13.578
_cell_angle_alpha                       113.181
_cell_angle_beta                        103.841
_cell_angle_gamma                       90.952
_symmetry_space_group_name_H-M          'P 1'
_symmetry_int_tables_number             1
loop_
  _symmetry_equiv_pos_as_xyz
         'x, y, z' 
loop_
  _atom_site_label
  _atom_site_occupancy
  _atom_site_fract_x
  _atom_site_fract_y
  _atom_site_fract_z
  _atom_site_thermal_displace_type
  _atom_site_B_iso_or_equiv
  _atom_site_type_symbol
  _atom_site_charge
         C1        1.0000    0.16910   0.05860   0.19010   Biso      1.000     C          -0.44472399999999995          
         C2        1.0000    0.83090   0.94140   0.80990   Biso      1.000     C          -0.44472399999999995          
         C3        1.0000    0.66690   0.69390   0.46040   Biso      1.000     C          0.6968880000000001  
         C4        1.0000    0.62840   0.40320   0.85750   Biso      1.000     C          0.363682  
         C5        1.0000    0.64680   0.98450   0.81400   Biso      1.000     C          0.381422  
         C6        1.0000    0.19880   0.56540   0.16660   Biso      1.000     C          -0.43995100000000004          
         C7        1.0000    0.15700   0.29140   0.57410   Biso      1.000     C          -0.43845200000000006          
         C8        1.0000    0.14020   0.44490   0.12800   Biso      1.000     C          0.692225  
         C9        1.0000    0.33310   0.30610   0.53960   Biso      1.000     C          0.696887  
         C10       1.0000    0.35320   0.01550   0.18600   Biso      1.000     C          0.381423  
         C11       1.0000    0.80120   0.43460   0.83340   Biso      1.000     C          -0.439949           
         C12       1.0000    0.85980   0.55510   0.87200   Biso      1.000     C          0.692228  
         C13       1.0000    0.12230   0.12060   0.11610   Biso      1.000     C          0.69279   
         C14       1.0000    0.04110   0.38240   0.58830   Biso      1.000     C          0.35776199999999997           
         C15       1.0000    0.84300   0.70860   0.42590   Biso      1.000     C          -0.438454           
         C16       1.0000    0.87770   0.87940   0.88390   Biso      1.000     C          0.69279   
         C17       1.0000    0.37160   0.59680   0.14250   Biso      1.000     C          0.363682  
         C18       1.0000    0.95890   0.61760   0.41170   Biso      1.000     C          0.357767  
         Cd1       1.0000    0.31565   0.22785   0.98577   Biso      1.000     Cd          0.869006  
         Cd2       1.0000    0.60071   0.43771   0.23774   Biso      1.000     Cd          0.9020090000000001  
         Cd3       1.0000    0.36573   0.76845   0.60502   Biso      1.000     Cd          0.918491  
         Cd4       1.0000    0.82032   0.24499   0.00416   Biso      1.000     Cd          0.905802  
         Cd5       1.0000    0.17968   0.75501   0.99584   Biso      1.000     Cd          0.9057870000000001  
         Cd6       1.0000    0.39929   0.56229   0.76226   Biso      1.000     Cd          0.901992  
         Cd7       1.0000    0.68435   0.77215   0.01423   Biso      1.000     Cd          0.868984  
         Cd8       1.0000    0.63427   0.23155   0.39498   Biso      1.000     Cd          0.9184950000000001  
         Cd9       1.0000    0.50000   0.50000   0.50000   Biso      1.000     Cd          0.895868  
         H1        1.0000    0.21620   0.59980   0.24640   Biso      1.000     H          0.170205  
         H2        1.0000    0.08040   0.22530   0.51850   Biso      1.000     H          0.165598  
         H3        1.0000    0.92940   0.00080   0.83460   Biso      1.000     H          0.16181900000000002           
         H4        1.0000    0.80650   0.71690   0.35630   Biso      1.000     H          0.179055  
         H5        1.0000    0.90460   0.40520   0.86730   Biso      1.000     H          0.160193  
         H6        1.0000    0.82580   0.89370   0.73380   Biso      1.000     H          0.17169500000000001           
         H7        1.0000    0.07060   0.99920   0.16540   Biso      1.000     H          0.16181900000000002           
         H8        1.0000    0.09540   0.59480   0.13270   Biso      1.000     H          0.160193  
         H9        1.0000    0.91960   0.77470   0.48150   Biso      1.000     H          0.1656    
         H10       1.0000    0.17420   0.10630   0.26620   Biso      1.000     H          0.17169700000000002           
         H11       1.0000    0.19350   0.28310   0.64370   Biso      1.000     H          0.179054  
         H12       1.0000    0.78380   0.40020   0.75360   Biso      1.000     H          0.170205  
         N1        1.0000    0.56570   0.66920   0.09040   Biso      1.000     N          -0.076934           
         N2        1.0000    0.95710   0.54190   0.63550   Biso      1.000     N          -0.030427999999999997         
         N3        1.0000    0.46210   0.44090   0.83530   Biso      1.000     N          -0.264407           
         N4        1.0000    0.81100   0.47250   0.56810   Biso      1.000     N          -0.042898           
         N5        1.0000    0.38540   0.66510   0.09590   Biso      1.000     N          -0.270835           
         N6        1.0000    0.86010   0.37200   0.53740   Biso      1.000     N          -0.30647199999999997          
         N7        1.0000    0.52040   0.07360   0.24210   Biso      1.000     N          -0.270716           
         N8        1.0000    0.89800   0.51390   0.35140   Biso      1.000     N          -0.26709299999999997          
         N9        1.0000    0.01460   0.20870   0.88460   Biso      1.000     N          -0.55655  
         N10       1.0000    0.13990   0.62800   0.46260   Biso      1.000     N          -0.306492           
         N11       1.0000    0.47960   0.92640   0.75790   Biso      1.000     N          -0.270715           
         N12       1.0000    0.43430   0.33080   0.90960   Biso      1.000     N          -0.076932           
         N13       1.0000    0.11510   0.83350   0.30120   Biso      1.000     N          -0.359354           
         N14       1.0000    0.56230   0.91770   0.13130   Biso      1.000     N          -0.050571           
         N15       1.0000    0.53790   0.55910   0.16470   Biso      1.000     N          -0.264408           
         N16       1.0000    0.04810   0.81440   0.21130   Biso      1.000     N          0.468625  
         N17       1.0000    0.37340   0.91780   0.11710   Biso      1.000     N          -0.267953           
         N18       1.0000    0.34170   0.39310   0.86800   Biso      1.000     N          -0.056208           
         N19       1.0000    0.61460   0.33490   0.90410   Biso      1.000     N          -0.270838           
         N20       1.0000    0.10200   0.48610   0.64860   Biso      1.000     N          -0.267074           
         N21       1.0000    0.98540   0.79130   0.11540   Biso      1.000     N          -0.556437           
         N22       1.0000    0.65170   0.01080   0.20560   Biso      1.000     N          -0.07009299999999999          
         N23       1.0000    0.04290   0.45810   0.36450   Biso      1.000     N          -0.030405           
         N24       1.0000    0.43770   0.08230   0.86870   Biso      1.000     N          -0.050574           
         N25       1.0000    0.18900   0.52750   0.43190   Biso      1.000     N          -0.042874           
         N26       1.0000    0.88490   0.16650   0.69880   Biso      1.000     N          -0.359361           
         N27       1.0000    0.34830   0.98920   0.79440   Biso      1.000     N          -0.07009800000000001          
         N28       1.0000    0.65830   0.60690   0.13200   Biso      1.000     N          -0.05620700000000001          
         N29       1.0000    0.62660   0.08220   0.88290   Biso      1.000     N          -0.26795399999999997          
         N30       1.0000    0.95190   0.18560   0.78870   Biso      1.000     N          0.468738  
         O1        1.0000    0.23490   0.12300   0.06230   Biso      1.000     O          -0.536389           
         O2        1.0000    0.97010   0.41440   0.09600   Biso      1.000     O          -0.531355           
         O3        1.0000    0.02990   0.58560   0.90400   Biso      1.000     O          -0.531351           
         O4        1.0000    0.73050   0.61530   0.86650   Biso      1.000     O          -0.580702           
         O5        1.0000    0.76510   0.87700   0.93770   Biso      1.000     O          -0.536391           
         O6        1.0000    0.49720   0.35890   0.33940   Biso      1.000     O          -0.6415569999999999           
         O7        1.0000    0.61020   0.27610   0.10800   Biso      1.000     O          -0.52136  
         O8        1.0000    0.57310   0.60100   0.41150   Biso      1.000     O          -0.601346           
         O9        1.0000    0.50280   0.64110   0.66060   Biso      1.000     O          -0.641551           
         O10       1.0000    0.26950   0.38470   0.13350   Biso      1.000     O          -0.580703           
         O11       1.0000    0.42690   0.39900   0.58850   Biso      1.000     O          -0.601341           
         O12       1.0000    0.02880   0.83760   0.88500   Biso      1.000     O          -0.5429649999999999           
         O13       1.0000    0.62060   0.77370   0.53040   Biso      1.000     O          -0.5360199999999999           
         O14       1.0000    0.38980   0.72390   0.89200   Biso      1.000     O          -0.521328           
         O15       1.0000    0.37940   0.22630   0.46960   Biso      1.000     O          -0.5360199999999999           
         O16       1.0000    0.97120   0.16240   0.11500   Biso      1.000     O          -0.5429609999999999 