
##########################################################################
#               Crystallographic Information Format file
#               Produced by PyCifRW module
#
#  This is a CIF file.  CIF has been adopted by the International
#  Union of Crystallography as the standard for data archiving and
#  transmission.
#
#  For information on this file format, follow the CIF links at
#  http://www.iucr.org
##########################################################################

data_image0

_cell_length_a                          9.8918
_cell_length_b                          23.57
_cell_length_c                          15.3668
_cell_angle_alpha                       90
_cell_angle_beta                        90
_cell_angle_gamma                       90
_symmetry_space_group_name_H-M          'P 1'
_symmetry_int_tables_number             1
loop_
  _symmetry_equiv_pos_as_xyz
         'x, y, z' 
loop_
  _atom_site_label
  _atom_site_occupancy
  _atom_site_fract_x
  _atom_site_fract_y
  _atom_site_fract_z
  _atom_site_thermal_displace_type
  _atom_site_B_iso_or_equiv
  _atom_site_type_symbol
  _atom_site_charge
         C1        1.0000    0.79057   0.28780   0.05178   Biso      1.000     C          0.074893  
         C2        1.0000    0.82937   0.60872   0.13500   Biso      1.000     C          -0.120322           
         C3        1.0000    0.92016   0.31005   0.06010   Biso      1.000     C          -0.15171400000000002          
         C4        1.0000    0.79057   0.71220   0.05178   Biso      1.000     C          0.074892  
         C5        1.0000    0.20943   0.21220   0.55178   Biso      1.000     C          0.075009  
         C6        1.0000    0.92016   0.68995   0.06010   Biso      1.000     C          -0.151719           
         C7        1.0000    0.36220   0.65126   0.46666   Biso      1.000     C          -0.090765           
         C8        1.0000    0.23252   0.73517   0.49900   Biso      1.000     C          0.084652  
         C9        1.0000    0.28635   0.35713   0.39162   Biso      1.000     C          -0.041023000000000004         
         C10       1.0000    0.93947   0.36181   0.10160   Biso      1.000     C          -0.008545           
         C11       1.0000    0.30015   0.13105   0.62700   Biso      1.000     C          -0.016295           
         C12       1.0000    0.76748   0.76483   0.99900   Biso      1.000     C          0.084784  
         C13       1.0000    0.42030   0.90239   0.65710   Biso      1.000     C          0.607738  
         C14       1.0000    0.17063   0.10872   0.63500   Biso      1.000     C          -0.12035  
         C15       1.0000    0.07984   0.18995   0.56010   Biso      1.000     C          -0.151637           
         C16       1.0000    0.32590   0.40061   0.32650   Biso      1.000     C          0.6088140000000001  
         C17       1.0000    0.71365   0.85713   0.89162   Biso      1.000     C          -0.041135000000000005         
         C18       1.0000    0.20943   0.78780   0.55178   Biso      1.000     C          0.07501100000000001           
         C19       1.0000    0.76748   0.23517   0.99900   Biso      1.000     C          0.084783  
         C20       1.0000    0.84340   0.77328   0.92390   Biso      1.000     C          -0.144841           
         C21       1.0000    0.18350   0.31937   0.37027   Biso      1.000     C          -0.08784  
         C22       1.0000    0.18350   0.68063   0.37027   Biso      1.000     C          -0.087838           
         C23       1.0000    0.33527   0.69741   0.52034   Biso      1.000     C          -0.145007           
         C24       1.0000    0.32770   0.50000   0.87980   Biso      1.000     C          -0.11520899999999999          
         C25       1.0000    0.81650   0.81937   0.87027   Biso      1.000     C          -0.087871           
         C26       1.0000    0.69985   0.36895   0.12700   Biso      1.000     C          -0.016263999999999997         
         C27       1.0000    0.07984   0.81005   0.56010   Biso      1.000     C          -0.15163900000000002          
         C28       1.0000    0.67230   0.00000   0.37980   Biso      1.000     C          -0.11452899999999999          
         C29       1.0000    0.31944   0.18277   0.58536   Biso      1.000     C          -0.148973           
         C30       1.0000    0.66473   0.19741   0.02034   Biso      1.000     C          -0.144982           
         C31       1.0000    0.23252   0.26483   0.49900   Biso      1.000     C          0.084652  
         C32       1.0000    0.06053   0.13819   0.60160   Biso      1.000     C          -0.008591           
         C33       1.0000    0.33527   0.30259   0.52034   Biso      1.000     C          -0.145007           
         C34       1.0000    0.30015   0.86895   0.62700   Biso      1.000     C          -0.016293000000000002         
         C35       1.0000    0.31350   0.50000   0.97320   Biso      1.000     C          0.550696  
         C36       1.0000    0.93947   0.63819   0.10160   Biso      1.000     C          -0.008537000000000001         
         C37       1.0000    0.67410   0.09939   0.82650   Biso      1.000     C          0.608854  
         C38       1.0000    0.07640   0.61325   0.11200   Biso      1.000     C          0.5435220000000001  
         C39       1.0000    0.28635   0.64287   0.39162   Biso      1.000     C          -0.041016000000000004         
         C40       1.0000    0.36220   0.34874   0.46666   Biso      1.000     C          -0.090761           
         C41       1.0000    0.42030   0.09761   0.65710   Biso      1.000     C          0.607737  
         C42       1.0000    0.63780   0.15126   0.96666   Biso      1.000     C          -0.09077  
         C43       1.0000    0.06053   0.86181   0.60160   Biso      1.000     C          -0.00859  
         C44       1.0000    0.92360   0.88675   0.61200   Biso      1.000     C          0.543556  
         C45       1.0000    0.07640   0.38675   0.11200   Biso      1.000     C          0.543524  
         C46       1.0000    0.67410   0.90061   0.82650   Biso      1.000     C          0.608847  
         C47       1.0000    0.68056   0.68277   0.08536   Biso      1.000     C          -0.149034           
         C48       1.0000    0.63780   0.84874   0.96666   Biso      1.000     C          -0.090772           
         C49       1.0000    0.82937   0.39128   0.13500   Biso      1.000     C          -0.120316           
         C50       1.0000    0.15660   0.72672   0.42390   Biso      1.000     C          -0.144893           
         C51       1.0000    0.69985   0.63105   0.12700   Biso      1.000     C          -0.016257           
         C52       1.0000    0.15660   0.27328   0.42390   Biso      1.000     C          -0.14489200000000002          
         C53       1.0000    0.68650   0.00000   0.47320   Biso      1.000     C          0.5506800000000001  
         C54       1.0000    0.92360   0.11325   0.61200   Biso      1.000     C          0.543558  
         C55       1.0000    0.84340   0.22672   0.92390   Biso      1.000     C          -0.144841           
         C56       1.0000    0.31944   0.81723   0.58536   Biso      1.000     C          -0.148974           
         C57       1.0000    0.17063   0.89128   0.63500   Biso      1.000     C          -0.120351           
         C58       1.0000    0.57970   0.40239   0.15710   Biso      1.000     C          0.607692  
         C59       1.0000    0.68056   0.31723   0.08536   Biso      1.000     C          -0.149029           
         C60       1.0000    0.32590   0.59939   0.32650   Biso      1.000     C          0.6088100000000001  
         C61       1.0000    0.81650   0.18063   0.87027   Biso      1.000     C          -0.087869           
         C62       1.0000    0.66473   0.80259   0.02034   Biso      1.000     C          -0.14498  
         C63       1.0000    0.71365   0.14287   0.89162   Biso      1.000     C          -0.041132999999999996         
         C64       1.0000    0.57970   0.59761   0.15710   Biso      1.000     C          0.607693  
         Fe1       1.0000    0.29528   0.56928   0.13681   Biso      1.000     Fe          0.9975700000000001  
         Fe2       1.0000    0.70472   0.93072   0.63681   Biso      1.000     Fe          0.997865  
         Fe3       1.0000    0.49071   0.50000   0.27423   Biso      1.000     Fe          1.0129219999999999  
         Fe4       1.0000    0.70472   0.06928   0.63681   Biso      1.000     Fe          0.997916  
         Fe5       1.0000    0.50929   0.00000   0.77423   Biso      1.000     Fe          1.012974  
         Fe6       1.0000    0.29528   0.43072   0.13681   Biso      1.000     Fe          0.997669  
         H1        1.0000    0.61290   0.79690   0.07160   Biso      1.000     H          0.123696  
         H2        1.0000    0.08640   0.24750   0.40930   Biso      1.000     H          0.122651  
         H3        1.0000    0.91360   0.25250   0.90930   Biso      1.000     H          0.122699  
         H4        1.0000    0.13170   0.67490   0.31900   Biso      1.000     H          0.12393   
         H5        1.0000    0.13170   0.32510   0.31900   Biso      1.000     H          0.123928  
         H6        1.0000    0.00450   0.21010   0.53750   Biso      1.000     H          0.12928599999999998           
         H7        1.0000    0.91360   0.74750   0.90930   Biso      1.000     H          0.122699  
         H8        1.0000    0.56760   0.87450   0.98130   Biso      1.000     H          0.123064  
         H9        1.0000    0.59210   0.30200   0.07980   Biso      1.000     H          0.131414  
         H10       1.0000    0.84260   0.42670   0.16330   Biso      1.000     H          0.135035  
         H11       1.0000    0.43240   0.37450   0.48130   Biso      1.000     H          0.12308800000000002           
         H12       1.0000    0.86830   0.82510   0.81900   Biso      1.000     H          0.123905  
         H13       1.0000    0.43240   0.62550   0.48130   Biso      1.000     H          0.12309   
         H14       1.0000    0.40790   0.80200   0.57980   Biso      1.000     H          0.13145   
         H15       1.0000    0.99550   0.71010   0.03750   Biso      1.000     H          0.12922899999999998           
         H16       1.0000    0.08640   0.75250   0.40930   Biso      1.000     H          0.122653  
         H17       1.0000    0.38710   0.70310   0.57160   Biso      1.000     H          0.123682  
         H18       1.0000    0.00450   0.78990   0.53750   Biso      1.000     H          0.12928699999999999           
         H19       1.0000    0.84260   0.57330   0.16330   Biso      1.000     H          0.135036  
         H20       1.0000    0.59210   0.69800   0.07980   Biso      1.000     H          0.131417  
         H21       1.0000    0.99550   0.28990   0.03750   Biso      1.000     H          0.129228  
         H22       1.0000    0.86830   0.17490   0.81900   Biso      1.000     H          0.123905  
         H23       1.0000    0.56760   0.12550   0.98130   Biso      1.000     H          0.12306700000000001           
         H24       1.0000    0.38710   0.29690   0.57160   Biso      1.000     H          0.123681  
         H25       1.0000    0.15740   0.92670   0.66330   Biso      1.000     H          0.13501400000000002           
         H26       1.0000    0.40790   0.19800   0.57980   Biso      1.000     H          0.131448  
         H27       1.0000    0.15740   0.07330   0.66330   Biso      1.000     H          0.135011  
         H28       1.0000    0.61290   0.20310   0.07160   Biso      1.000     H          0.123698  
         O1        1.0000    0.40618   0.56064   0.34746   Biso      1.000     O          -0.48965  
         O2        1.0000    0.40618   0.43936   0.34746   Biso      1.000     O          -0.48962700000000003          
         O3        1.0000    0.81961   0.14125   0.59243   Biso      1.000     O          -0.44026400000000004          
         O4        1.0000    0.30840   0.45360   0.01239   Biso      1.000     O          -0.437589           
         O5        1.0000    0.18039   0.64125   0.09243   Biso      1.000     O          -0.440395           
         O6        1.0000    0.39825   0.05885   0.71099   Biso      1.000     O          -0.499497           
         O7        1.0000    0.69160   0.95360   0.51239   Biso      1.000     O          -0.43749099999999996          
         O8        1.0000    0.46875   0.61034   0.12370   Biso      1.000     O          -0.44868100000000005          
         O9        1.0000    0.91148   0.06284   0.63820   Biso      1.000     O          -0.43176099999999995          
         O10       1.0000    0.53125   0.11034   0.62370   Biso      1.000     O          -0.44857600000000003          
         O11       1.0000    0.69160   0.04640   0.51239   Biso      1.000     O          -0.437488           
         O12       1.0000    0.46875   0.38966   0.12370   Biso      1.000     O          -0.448667           
         O13       1.0000    0.59382   0.06064   0.84746   Biso      1.000     O          -0.48961499999999997          
         O14       1.0000    0.72880   0.10440   0.75197   Biso      1.000     O          -0.477616           
         O15       1.0000    0.59382   0.93936   0.84746   Biso      1.000     O          -0.489604           
         O16       1.0000    0.81961   0.85875   0.59243   Biso      1.000     O          -0.440263           
         O17       1.0000    0.53125   0.88966   0.62370   Biso      1.000     O          -0.448568           
         O18       1.0000    0.35400   0.50000   0.18280   Biso      1.000     O          -0.700862           
         O19       1.0000    0.91148   0.93716   0.63820   Biso      1.000     O          -0.431755           
         O20       1.0000    0.60175   0.44115   0.21099   Biso      1.000     O          -0.49952700000000005          
         O21       1.0000    0.27120   0.60440   0.25197   Biso      1.000     O          -0.477705           
         O22       1.0000    0.08852   0.56284   0.13820   Biso      1.000     O          -0.43189799999999995          
         O23       1.0000    0.30840   0.54640   0.01239   Biso      1.000     O          -0.437557           
         O24       1.0000    0.27120   0.39560   0.25197   Biso      1.000     O          -0.47770799999999997          
         O25       1.0000    0.08852   0.43716   0.13820   Biso      1.000     O          -0.431863           
         O26       1.0000    0.18039   0.35875   0.09243   Biso      1.000     O          -0.440406           
         O27       1.0000    0.64600   0.00000   0.68280   Biso      1.000     O          -0.700969           
         O28       1.0000    0.39825   0.94115   0.71099   Biso      1.000     O          -0.49950600000000006          
         O29       1.0000    0.60175   0.55885   0.21099   Biso      1.000     O          -0.49950200000000006          
         O30       1.0000    0.72880   0.89560   0.75197   Biso      1.000     O          -0.477587 