
##########################################################################
#               Crystallographic Information Format file
#               Produced by PyCifRW module
#
#  This is a CIF file.  CIF has been adopted by the International
#  Union of Crystallography as the standard for data archiving and
#  transmission.
#
#  For information on this file format, follow the CIF links at
#  http://www.iucr.org
##########################################################################

data_image0

_cell_length_a                          16.697
_cell_length_b                          13.848
_cell_length_c                          10.873
_cell_angle_alpha                       90
_cell_angle_beta                        101.62
_cell_angle_gamma                       90
_symmetry_space_group_name_H-M          'P 1'
_symmetry_int_tables_number             1
loop_
  _symmetry_equiv_pos_as_xyz
         'x, y, z' 
loop_
  _atom_site_label
  _atom_site_occupancy
  _atom_site_fract_x
  _atom_site_fract_y
  _atom_site_fract_z
  _atom_site_thermal_displace_type
  _atom_site_B_iso_or_equiv
  _atom_site_type_symbol
  _atom_site_charge
         Fe1       1.0000    0.93212   0.63236   0.85977   Biso      1.000     Fe          1.108741  
         Fe2       1.0000    0.43212   0.13236   0.85977   Biso      1.000     Fe          1.108718  
         Fe3       1.0000    0.06788   0.63236   0.14023   Biso      1.000     Fe          1.108741  
         Fe4       1.0000    0.56788   0.13236   0.14023   Biso      1.000     Fe          1.108718  
         Fe5       1.0000    0.00000   0.44238   0.00000   Biso      1.000     Fe          1.041721  
         Fe6       1.0000    0.50000   0.94238   0.00000   Biso      1.000     Fe          1.041446  
         O1        1.0000    0.88303   0.41687   0.97397   Biso      1.000     O          -0.45951  
         O2        1.0000    0.83791   0.54156   0.83860   Biso      1.000     O          -0.460435           
         O3        1.0000    0.71512   0.34866   0.92831   Biso      1.000     O          -0.090577           
         O4        1.0000    0.62180   0.21177   0.02608   Biso      1.000     O          -0.439589           
         O5        1.0000    0.51546   0.23633   0.85655   Biso      1.000     O          -0.454119           
         O6        1.0000    0.99190   0.41212   0.82078   Biso      1.000     O          -0.476664           
         O7        1.0000    0.97835   0.56245   0.73066   Biso      1.000     O          -0.435981           
         O8        1.0000    0.87749   0.69450   0.74613   Biso      1.000     O          -0.301816           
         O9        1.0000    0.38303   0.91687   0.97397   Biso      1.000     O          -0.459496           
         O10       1.0000    0.33791   0.04156   0.83860   Biso      1.000     O          -0.460441           
         O11       1.0000    0.21512   0.84866   0.92831   Biso      1.000     O          -0.090526           
         O12       1.0000    0.12180   0.71177   0.02608   Biso      1.000     O          -0.439592           
         O13       1.0000    0.01546   0.73633   0.85655   Biso      1.000     O          -0.454114           
         O14       1.0000    0.49190   0.91211   0.82078   Biso      1.000     O          -0.476442           
         O15       1.0000    0.47835   0.06245   0.73066   Biso      1.000     O          -0.435881           
         O16       1.0000    0.37749   0.19450   0.74612   Biso      1.000     O          -0.301856           
         O17       1.0000    0.11697   0.41687   0.02603   Biso      1.000     O          -0.45951  
         O18       1.0000    0.16209   0.54156   0.16140   Biso      1.000     O          -0.460435           
         O19       1.0000    0.28488   0.34866   0.07169   Biso      1.000     O          -0.090577           
         O20       1.0000    0.37820   0.21177   0.97392   Biso      1.000     O          -0.439589           
         O21       1.0000    0.48454   0.23633   0.14345   Biso      1.000     O          -0.454119           
         O22       1.0000    0.00810   0.41212   0.17922   Biso      1.000     O          -0.476664           
         O23       1.0000    0.02165   0.56245   0.26934   Biso      1.000     O          -0.435981           
         O24       1.0000    0.12251   0.69450   0.25387   Biso      1.000     O          -0.301816           
         O25       1.0000    0.61697   0.91687   0.02603   Biso      1.000     O          -0.459496           
         O26       1.0000    0.66209   0.04156   0.16140   Biso      1.000     O          -0.460441           
         O27       1.0000    0.78488   0.84866   0.07169   Biso      1.000     O          -0.090526           
         O28       1.0000    0.87820   0.71177   0.97392   Biso      1.000     O          -0.439592           
         O29       1.0000    0.98454   0.73633   0.14345   Biso      1.000     O          -0.454114           
         O30       1.0000    0.50810   0.91211   0.17922   Biso      1.000     O          -0.476442           
         O31       1.0000    0.52165   0.06245   0.26934   Biso      1.000     O          -0.435881           
         O32       1.0000    0.62251   0.19450   0.25388   Biso      1.000     O          -0.301855           
         O33       1.0000    0.00000   0.48727   0.50000   Biso      1.000     O          -0.084747           
         O34       1.0000    0.50000   0.98727   0.50000   Biso      1.000     O          -0.084762           
         O35       1.0000    0.00000   0.57117   0.00000   Biso      1.000     O          -0.734503           
         O36       1.0000    0.50000   0.07116   0.00000   Biso      1.000     O          -0.734339           
         C1        1.0000    0.82710   0.46261   0.89609   Biso      1.000     C          0.54935   
         C2        1.0000    0.74131   0.42504   0.86314   Biso      1.000     C          0.080385  
         C3        1.0000    0.67745   0.45514   0.76798   Biso      1.000     C          -0.157308           
         C4        1.0000    0.60903   0.39440   0.77333   Biso      1.000     C          -0.167136           
         C5        1.0000    0.63404   0.33079   0.87223   Biso      1.000     C          0.097373  
         C6        1.0000    0.58704   0.25272   0.92320   Biso      1.000     C          0.545324  
         C7        1.0000    0.98904   0.47064   0.72634   Biso      1.000     C          0.549749  
         C8        1.0000    0.99729   0.42702   0.60205   Biso      1.000     C          0.092419  
         C9        1.0000    0.99868   0.33157   0.56523   Biso      1.000     C          -0.159437           
         C10       1.0000    0.32710   0.96261   0.89609   Biso      1.000     C          0.549377  
         C11       1.0000    0.24131   0.92504   0.86315   Biso      1.000     C          0.080329  
         C12       1.0000    0.17745   0.95514   0.76798   Biso      1.000     C          -0.157293           
         C13       1.0000    0.10903   0.89440   0.77333   Biso      1.000     C          -0.16715  
         C14       1.0000    0.13404   0.83079   0.87223   Biso      1.000     C          0.097361  
         C15       1.0000    0.08704   0.75272   0.92320   Biso      1.000     C          0.545328  
         C16       1.0000    0.48904   0.97064   0.72634   Biso      1.000     C          0.549458  
         C17       1.0000    0.49729   0.92702   0.60205   Biso      1.000     C          0.092486  
         C18       1.0000    0.49868   0.83157   0.56523   Biso      1.000     C          -0.159447           
         C19       1.0000    0.17290   0.46261   0.10391   Biso      1.000     C          0.54935   
         C20       1.0000    0.25869   0.42504   0.13686   Biso      1.000     C          0.080385  
         C21       1.0000    0.32255   0.45514   0.23202   Biso      1.000     C          -0.157308           
         C22       1.0000    0.39097   0.39440   0.22667   Biso      1.000     C          -0.167136           
         C23       1.0000    0.36596   0.33079   0.12777   Biso      1.000     C          0.097373  
         C24       1.0000    0.41296   0.25272   0.07680   Biso      1.000     C          0.545324  
         C25       1.0000    0.01096   0.47064   0.27366   Biso      1.000     C          0.549749  
         C26       1.0000    0.00271   0.42702   0.39795   Biso      1.000     C          0.09242   
         C27       1.0000    0.00132   0.33157   0.43477   Biso      1.000     C          -0.159438           
         C28       1.0000    0.67290   0.96261   0.10391   Biso      1.000     C          0.549377  
         C29       1.0000    0.75869   0.92504   0.13685   Biso      1.000     C          0.080329  
         C30       1.0000    0.82255   0.95514   0.23202   Biso      1.000     C          -0.157293           
         C31       1.0000    0.89097   0.89440   0.22667   Biso      1.000     C          -0.16715  
         C32       1.0000    0.86596   0.83079   0.12777   Biso      1.000     C          0.097361  
         C33       1.0000    0.91296   0.75272   0.07680   Biso      1.000     C          0.545328  
         C34       1.0000    0.51096   0.97064   0.27366   Biso      1.000     C          0.549458  
         C35       1.0000    0.50271   0.92702   0.39795   Biso      1.000     C          0.092486  
         C36       1.0000    0.50132   0.83157   0.43477   Biso      1.000     C          -0.159449           
         H1        1.0000    0.68008   0.51353   0.70116   Biso      1.000     H          0.155893  
         H2        1.0000    0.54822   0.39717   0.71238   Biso      1.000     H          0.158371  
         H3        1.0000    0.99701   0.26859   0.62549   Biso      1.000     H          0.153737  
         H4        1.0000    0.18008   0.01353   0.70116   Biso      1.000     H          0.155892  
         H5        1.0000    0.04822   0.89717   0.71238   Biso      1.000     H          0.158376  
         H6        1.0000    0.49701   0.76859   0.62549   Biso      1.000     H          0.153737  
         H7        1.0000    0.31992   0.51353   0.29884   Biso      1.000     H          0.155892  
         H8        1.0000    0.45178   0.39717   0.28762   Biso      1.000     H          0.158371  
         H9        1.0000    0.00299   0.26859   0.37451   Biso      1.000     H          0.153737  
         H10       1.0000    0.81992   0.01353   0.29884   Biso      1.000     H          0.155892  
         H11       1.0000    0.95178   0.89717   0.28762   Biso      1.000     H          0.158376  
         H12       1.0000    0.50299   0.76859   0.37451   Biso      1.000     H          0.153737 