
##########################################################################
#               Crystallographic Information Format file
#               Produced by PyCifRW module
#
#  This is a CIF file.  CIF has been adopted by the International
#  Union of Crystallography as the standard for data archiving and
#  transmission.
#
#  For information on this file format, follow the CIF links at
#  http://www.iucr.org
##########################################################################

data_image0

_cell_length_a                          7.5883
_cell_length_b                          15.7838
_cell_length_c                          15.7838
_cell_angle_alpha                       94.2825
_cell_angle_beta                        99.4787
_cell_angle_gamma                       99.4787
_symmetry_space_group_name_H-M          'P 1'
_symmetry_int_tables_number             1
loop_
  _symmetry_equiv_pos_as_xyz
         'x, y, z' 
loop_
  _atom_site_label
  _atom_site_occupancy
  _atom_site_fract_x
  _atom_site_fract_y
  _atom_site_fract_z
  _atom_site_thermal_displace_type
  _atom_site_B_iso_or_equiv
  _atom_site_type_symbol
  _atom_site_charge
         C1        1.0000    0.07270   0.18210   0.20930   Biso      1.000     C          -0.11593099999999999          
         C2        1.0000    0.23300   0.12510   0.86410   Biso      1.000     C          0.10721099999999999           
         C3        1.0000    0.04010   0.79700   0.01800   Biso      1.000     C          -0.13104100000000002          
         C4        1.0000    0.83350   0.79000   0.85820   Biso      1.000     C          -0.213527           
         C5        1.0000    0.37070   0.08420   0.89840   Biso      1.000     C          -0.085987           
         C6        1.0000    0.51590   0.46960   0.43220   Biso      1.000     C          0.61077   
         C7        1.0000    0.45740   0.19380   0.02040   Biso      1.000     C          -0.08491699999999999          
         C8        1.0000    0.40360   0.40450   0.35490   Biso      1.000     C          -0.174699           
         C9        1.0000    0.77700   0.33200   0.80620   Biso      1.000     C          0.263162  
         C10       1.0000    0.24110   0.85670   0.26570   Biso      1.000     C          -0.21077600000000002          
         C11       1.0000    0.62680   0.06990   0.01790   Biso      1.000     C          -0.529691           
         C12       1.0000    0.88190   0.22550   0.88830   Biso      1.000     C          -0.140279           
         C13       1.0000    0.90670   0.84800   0.00700   Biso      1.000     C          0.10307899999999999           
         C14       1.0000    0.67630   0.25420   0.25640   Biso      1.000     C          -0.225819           
         C15       1.0000    0.12680   0.01790   0.06990   Biso      1.000     C          -0.529691           
         C16       1.0000    0.74110   0.26570   0.85670   Biso      1.000     C          -0.21076599999999998          
         C17       1.0000    0.98320   0.97890   0.11710   Biso      1.000     C          0.11048399999999998           
         C18       1.0000    0.65270   0.45610   0.78930   Biso      1.000     C          -0.158703           
         C19       1.0000    0.94460   0.59900   0.67140   Biso      1.000     C          0.6481640000000001  
         C20       1.0000    0.30840   0.92650   0.84430   Biso      1.000     C          -0.12003  
         C21       1.0000    0.79360   0.32940   0.25100   Biso      1.000     C          0.26371500000000003           
         C22       1.0000    0.96240   0.73810   0.87050   Biso      1.000     C          0.27288   
         C23       1.0000    0.99410   0.74810   0.49470   Biso      1.000     C          0.6139979999999999  
         C24       1.0000    0.49410   0.49470   0.74810   Biso      1.000     C          0.614001  
         C25       1.0000    0.80840   0.84430   0.92650   Biso      1.000     C          -0.120022           
         C26       1.0000    0.44880   0.78700   0.35600   Biso      1.000     C          -0.189362           
         C27       1.0000    0.08540   0.31220   0.82060   Biso      1.000     C          -0.110713           
         C28       1.0000    0.38190   0.88830   0.22550   Biso      1.000     C          -0.140274           
         C29       1.0000    0.70900   0.30920   0.09880   Biso      1.000     C          -0.1287   
         C30       1.0000    0.15270   0.78930   0.45610   Biso      1.000     C          -0.158699           
         C31       1.0000    0.29360   0.25100   0.32940   Biso      1.000     C          0.263707  
         C32       1.0000    0.88650   0.66740   0.72740   Biso      1.000     C          -0.197908           
         C33       1.0000    0.38650   0.72740   0.66740   Biso      1.000     C          -0.19791199999999998          
         C34       1.0000    0.33350   0.85820   0.79000   Biso      1.000     C          -0.21352600000000002          
         C35       1.0000    0.17630   0.25640   0.25420   Biso      1.000     C          -0.225809           
         C36       1.0000    0.70320   0.90800   0.20100   Biso      1.000     C          -0.081122           
         C37       1.0000    0.48320   0.11710   0.97890   Biso      1.000     C          0.11048399999999998           
         C38       1.0000    0.58540   0.82060   0.31220   Biso      1.000     C          -0.11071099999999999          
         C39       1.0000    0.27700   0.80620   0.33200   Biso      1.000     C          0.263173  
         C40       1.0000    0.06580   0.74190   0.95170   Biso      1.000     C          -0.19574  
         C41       1.0000    0.55490   0.87120   0.24620   Biso      1.000     C          0.097372  
         C42       1.0000    0.58290   0.23670   0.10170   Biso      1.000     C          0.096093  
         C43       1.0000    0.57270   0.20930   0.18210   Biso      1.000     C          -0.11592100000000001          
         C44       1.0000    0.90360   0.35490   0.40450   Biso      1.000     C          -0.17469200000000001          
         C45       1.0000    0.81780   0.98650   0.23490   Biso      1.000     C          0.093566  
         C46       1.0000    0.31270   0.17210   0.35670   Biso      1.000     C          -0.191753           
         C47       1.0000    0.44460   0.67140   0.59900   Biso      1.000     C          0.6481640000000001  
         C48       1.0000    0.87070   0.89840   0.08420   Biso      1.000     C          -0.08599  
         C49       1.0000    0.56580   0.95170   0.74190   Biso      1.000     C          -0.195748           
         C50       1.0000    0.54010   0.01800   0.79700   Biso      1.000     C          -0.13103299999999998          
         C51       1.0000    0.20900   0.09880   0.30920   Biso      1.000     C          -0.128692           
         C52       1.0000    0.78060   0.03500   0.31600   Biso      1.000     C          -0.5155689999999999           
         C53       1.0000    0.60710   0.77980   0.08860   Biso      1.000     C          -0.516541           
         C54       1.0000    0.46240   0.87050   0.73810   Biso      1.000     C          0.272874  
         C55       1.0000    0.94880   0.35600   0.78700   Biso      1.000     C          -0.189355           
         C56       1.0000    0.08290   0.10170   0.23670   Biso      1.000     C          0.096089  
         C57       1.0000    0.01590   0.43220   0.46960   Biso      1.000     C          0.6107560000000001  
         C58       1.0000    0.81270   0.35670   0.17210   Biso      1.000     C          -0.191743           
         C59       1.0000    0.20320   0.20100   0.90800   Biso      1.000     C          -0.081121           
         C60       1.0000    0.73300   0.86410   0.12510   Biso      1.000     C          0.107214  
         C61       1.0000    0.28060   0.31600   0.03500   Biso      1.000     C          -0.515568           
         C62       1.0000    0.40670   0.00700   0.84800   Biso      1.000     C          0.10307899999999999           
         C63       1.0000    0.95740   0.02040   0.19380   Biso      1.000     C          -0.084914           
         C64       1.0000    0.10710   0.08860   0.77980   Biso      1.000     C          -0.516541           
         C65       1.0000    0.31780   0.23490   0.98650   Biso      1.000     C          0.093567  
         C66       1.0000    0.05490   0.24620   0.87120   Biso      1.000     C          0.097374  
         H1        1.0000    0.67760   0.73770   0.07330   Biso      1.000     H          0.172102  
         H2        1.0000    0.72490   0.32690   0.04530   Biso      1.000     H          0.111849  
         H3        1.0000    0.17100   0.85150   0.46990   Biso      1.000     H          0.101618  
         H4        1.0000    0.73300   0.11080   0.04480   Biso      1.000     H          0.155585  
         H5        1.0000    0.39430   0.16820   0.40640   Biso      1.000     H          0.144206  
         H6        1.0000    0.47250   0.75250   0.40030   Biso      1.000     H          0.14103   
         H7        1.0000    0.15290   0.31730   0.02310   Biso      1.000     H          0.16031099999999998           
         H8        1.0000    0.97250   0.40030   0.75250   Biso      1.000     H          0.14103   
         H9        1.0000    0.22140   0.91670   0.87930   Biso      1.000     H          0.10802   
         H10       1.0000    0.85870   0.18160   0.92320   Biso      1.000     H          0.10766500000000001           
         H11       1.0000    0.89430   0.40640   0.16820   Biso      1.000     H          0.144203  
         H12       1.0000    0.49310   0.15880   0.18600   Biso      1.000     H          0.111624  
         H13       1.0000    0.17760   0.07330   0.73770   Biso      1.000     H          0.172101  
         H14       1.0000    0.70120   0.80820   0.32820   Biso      1.000     H          0.11918800000000002           
         H15       1.0000    0.89700   0.72130   0.70110   Biso      1.000     H          0.136233  
         H16       1.0000    0.72140   0.87930   0.91670   Biso      1.000     H          0.108017  
         H17       1.0000    0.03840   0.13120   0.75940   Biso      1.000     H          0.16336900000000001           
         H18       1.0000    0.99310   0.18600   0.15880   Biso      1.000     H          0.111626  
         H19       1.0000    0.23300   0.04480   0.11080   Biso      1.000     H          0.155584  
         H20       1.0000    0.35870   0.92320   0.18160   Biso      1.000     H          0.10766400000000001           
         H21       1.0000    0.61390   0.07190   0.80050   Biso      1.000     H          0.11377999999999999           
         H22       1.0000    0.65290   0.02310   0.31730   Biso      1.000     H          0.16031199999999998           
         H23       1.0000    0.76070   0.64960   0.73280   Biso      1.000     H          0.126834  
         H24       1.0000    0.62540   0.24890   0.86890   Biso      1.000     H          0.124766  
         H25       1.0000    0.96220   0.30480   0.40800   Biso      1.000     H          0.120314  
         H26       1.0000    0.31910   0.31520   0.09600   Biso      1.000     H          0.156637  
         H27       1.0000    0.58250   0.03570   0.06030   Biso      1.000     H          0.168791  
         H28       1.0000    0.08250   0.06030   0.03570   Biso      1.000     H          0.16879   
         H29       1.0000    0.65700   0.03290   0.97350   Biso      1.000     H          0.157967  
         H30       1.0000    0.22490   0.04530   0.32690   Biso      1.000     H          0.11185   
         H31       1.0000    0.76120   0.48320   0.77000   Biso      1.000     H          0.111858  
         H32       1.0000    0.11390   0.80050   0.07190   Biso      1.000     H          0.113778  
         H33       1.0000    0.16750   0.30980   0.23420   Biso      1.000     H          0.12429000000000001           
         H34       1.0000    0.26290   0.80390   0.78850   Biso      1.000     H          0.127162  
         H35       1.0000    0.65300   0.96150   0.70690   Biso      1.000     H          0.13893599999999998           
         H36       1.0000    0.12540   0.86890   0.24890   Biso      1.000     H          0.124766  
         H37       1.0000    0.28200   0.41680   0.33940   Biso      1.000     H          0.12861199999999998           
         H38       1.0000    0.66750   0.23420   0.30980   Biso      1.000     H          0.12428900000000001           
         H39       1.0000    0.46220   0.40800   0.30480   Biso      1.000     H          0.12031800000000001           
         H40       1.0000    0.02570   0.03810   0.78910   Biso      1.000     H          0.1658    
         H41       1.0000    0.26120   0.77000   0.48320   Biso      1.000     H          0.111855  
         H42       1.0000    0.52570   0.78910   0.03810   Biso      1.000     H          0.1658    
         H43       1.0000    0.15300   0.70690   0.96150   Biso      1.000     H          0.138934  
         H44       1.0000    0.39700   0.70110   0.72130   Biso      1.000     H          0.136233  
         H45       1.0000    0.67100   0.46990   0.85150   Biso      1.000     H          0.10162   
         H46       1.0000    0.26070   0.73280   0.64960   Biso      1.000     H          0.126835  
         H47       1.0000    0.20120   0.32820   0.80820   Biso      1.000     H          0.11918800000000002           
         H48       1.0000    0.53840   0.75940   0.13120   Biso      1.000     H          0.16337000000000002           
         H49       1.0000    0.78200   0.33940   0.41680   Biso      1.000     H          0.128611  
         H50       1.0000    0.34640   0.36640   0.01640   Biso      1.000     H          0.172084  
         H51       1.0000    0.84640   0.01640   0.36640   Biso      1.000     H          0.172085  
         H52       1.0000    0.76290   0.78850   0.80390   Biso      1.000     H          0.127157  
         H53       1.0000    0.81910   0.09600   0.31520   Biso      1.000     H          0.156637  
         H54       1.0000    0.15700   0.97350   0.03290   Biso      1.000     H          0.157967  
         O1        1.0000    0.63290   0.36970   0.77170   Biso      1.000     O          -0.15836  
         O2        1.0000    0.99850   0.67950   0.80950   Biso      1.000     O          -0.140426           
         O3        1.0000    0.99770   0.76840   0.57080   Biso      1.000     O          -0.509472           
         O4        1.0000    0.03900   0.50410   0.44670   Biso      1.000     O          -0.438916           
         O5        1.0000    0.13290   0.77170   0.36970   Biso      1.000     O          -0.158366           
         O6        1.0000    0.39710   0.32020   0.38460   Biso      1.000     O          -0.162092           
         O7        1.0000    0.49850   0.80950   0.67950   Biso      1.000     O          -0.140416           
         O8        1.0000    0.53900   0.44670   0.50410   Biso      1.000     O          -0.438936           
         O9        1.0000    0.89710   0.38460   0.32020   Biso      1.000     O          -0.162099           
         O10       1.0000    0.37070   0.44470   0.69370   Biso      1.000     O          -0.53505  
         O11       1.0000    0.56530   0.54210   0.40990   Biso      1.000     O          -0.53593  
         O12       1.0000    0.36030   0.59660   0.57880   Biso      1.000     O          -0.558822           
         O13       1.0000    0.86030   0.57880   0.59660   Biso      1.000     O          -0.558826           
         O14       1.0000    0.06530   0.40990   0.54210   Biso      1.000     O          -0.535933           
         O15       1.0000    0.07560   0.56540   0.70340   Biso      1.000     O          -0.553878           
         O16       1.0000    0.49770   0.57080   0.76840   Biso      1.000     O          -0.5094810000000001           
         O17       1.0000    0.57560   0.70340   0.56540   Biso      1.000     O          -0.553878           
         O18       1.0000    0.87070   0.69370   0.44470   Biso      1.000     O          -0.535051           
         Zn1       1.0000    0.70158   0.62315   0.50695   Biso      1.000     Zn          0.960621  
         Zn2       1.0000    0.20158   0.50695   0.62315   Biso      1.000     Zn          0.960622 