
##########################################################################
#               Crystallographic Information Format file
#               Produced by PyCifRW module
#
#  This is a CIF file.  CIF has been adopted by the International
#  Union of Crystallography as the standard for data archiving and
#  transmission.
#
#  For information on this file format, follow the CIF links at
#  http://www.iucr.org
##########################################################################

data_image0

_cell_length_a                          14.8228
_cell_length_b                          14.8228
_cell_length_c                          11.7919
_cell_angle_alpha                       90
_cell_angle_beta                        90
_cell_angle_gamma                       90
_symmetry_space_group_name_H-M          'P 1'
_symmetry_int_tables_number             1
loop_
  _symmetry_equiv_pos_as_xyz
         'x, y, z' 
loop_
  _atom_site_label
  _atom_site_occupancy
  _atom_site_fract_x
  _atom_site_fract_y
  _atom_site_fract_z
  _atom_site_thermal_displace_type
  _atom_site_B_iso_or_equiv
  _atom_site_type_symbol
  _atom_site_charge
         Al1       1.0000    0.69415   0.19415   0.75000   Biso      1.000     Al          1.61726   
         Al2       1.0000    0.30585   0.80585   0.75000   Biso      1.000     Al          1.617261  
         Al3       1.0000    0.30585   0.69415   0.50000   Biso      1.000     Al          1.61726   
         Al4       1.0000    0.80585   0.19415   0.00000   Biso      1.000     Al          1.61726   
         Al5       1.0000    0.19415   0.69415   0.25000   Biso      1.000     Al          1.61726   
         Al6       1.0000    0.19415   0.80585   0.00000   Biso      1.000     Al          1.61726   
         Al7       1.0000    0.69415   0.30585   0.50000   Biso      1.000     Al          1.61726   
         Al8       1.0000    0.80585   0.30585   0.25000   Biso      1.000     Al          1.61726   
         C1        1.0000    0.91008   0.35603   0.05126   Biso      1.000     C          0.641098  
         C2        1.0000    0.42905   0.96233   0.13125   Biso      1.000     C          -0.163629           
         C3        1.0000    0.42876   0.96119   0.01206   Biso      1.000     C          -0.021524           
         C4        1.0000    0.41008   0.85603   0.55126   Biso      1.000     C          0.641098  
         C5        1.0000    0.46119   0.92876   0.48794   Biso      1.000     C          -0.021524           
         C6        1.0000    0.57124   0.46119   0.23794   Biso      1.000     C          -0.021526           
         C7        1.0000    0.50000   0.50000   0.70562   Biso      1.000     C          -0.127613           
         C8        1.0000    0.46233   0.92905   0.36875   Biso      1.000     C          -0.163629           
         C9        1.0000    0.50000   0.50000   0.93719   Biso      1.000     C          0.099193  
         C10       1.0000    0.58992   0.14397   0.55126   Biso      1.000     C          0.641098  
         C11       1.0000    0.53881   0.07124   0.48794   Biso      1.000     C          -0.021524           
         C12       1.0000    0.53767   0.07095   0.36875   Biso      1.000     C          -0.163629           
         C13       1.0000    0.96119   0.42876   0.98794   Biso      1.000     C          -0.021524           
         C14       1.0000    0.96233   0.42905   0.86875   Biso      1.000     C          -0.163629           
         C15       1.0000    0.35603   0.91008   0.94874   Biso      1.000     C          0.641099  
         C16       1.0000    0.08992   0.64397   0.05126   Biso      1.000     C          0.641098  
         C17       1.0000    0.03881   0.57124   0.98794   Biso      1.000     C          -0.021524           
         C18       1.0000    0.03767   0.57095   0.86875   Biso      1.000     C          -0.163629           
         C19       1.0000    0.50000   0.50000   0.06281   Biso      1.000     C          0.099192  
         C20       1.0000    0.85603   0.08992   0.80126   Biso      1.000     C          0.641098  
         C21       1.0000    0.92876   0.03881   0.73794   Biso      1.000     C          -0.021524           
         C22       1.0000    0.92905   0.03767   0.61875   Biso      1.000     C          -0.163629           
         C23       1.0000    0.35603   0.58992   0.30126   Biso      1.000     C          0.641099  
         C24       1.0000    0.42876   0.53881   0.23794   Biso      1.000     C          -0.021526           
         C25       1.0000    0.42905   0.53767   0.11875   Biso      1.000     C          -0.163614           
         C26       1.0000    0.07095   0.96233   0.61875   Biso      1.000     C          -0.163629           
         C27       1.0000    0.07124   0.96119   0.73794   Biso      1.000     C          -0.021524           
         C28       1.0000    0.14397   0.91008   0.80126   Biso      1.000     C          0.641099  
         C29       1.0000    0.64397   0.41008   0.30126   Biso      1.000     C          0.641099  
         C30       1.0000    0.92905   0.46233   0.63125   Biso      1.000     C          -0.163628           
         C31       1.0000    0.92876   0.46119   0.51206   Biso      1.000     C          -0.021524           
         C32       1.0000    0.57095   0.46233   0.11875   Biso      1.000     C          -0.163614           
         C33       1.0000    0.00000   0.00000   0.20562   Biso      1.000     C          -0.127613           
         C34       1.0000    0.46119   0.57124   0.76206   Biso      1.000     C          -0.021522           
         C35       1.0000    0.41008   0.64397   0.69874   Biso      1.000     C          0.641098  
         C36       1.0000    0.00000   0.50000   0.04438   Biso      1.000     C          -0.127606           
         C37       1.0000    0.00000   0.50000   0.81281   Biso      1.000     C          0.099217  
         C38       1.0000    0.96233   0.07095   0.38125   Biso      1.000     C          -0.163629           
         C39       1.0000    0.96119   0.07124   0.26206   Biso      1.000     C          -0.02152  
         C40       1.0000    0.91008   0.14397   0.19874   Biso      1.000     C          0.641098  
         C41       1.0000    0.50000   0.00000   0.54438   Biso      1.000     C          -0.127606           
         C42       1.0000    0.85603   0.41008   0.44874   Biso      1.000     C          0.641099  
         C43       1.0000    0.50000   0.00000   0.31281   Biso      1.000     C          0.099216  
         C44       1.0000    0.03881   0.92876   0.26206   Biso      1.000     C          -0.02152  
         C45       1.0000    0.08992   0.85603   0.19874   Biso      1.000     C          0.641098  
         C46       1.0000    0.00000   0.00000   0.79438   Biso      1.000     C          -0.127606           
         C47       1.0000    0.00000   0.00000   0.56281   Biso      1.000     C          0.099216  
         C48       1.0000    0.53767   0.42905   0.88125   Biso      1.000     C          -0.163615           
         C49       1.0000    0.53881   0.42876   0.76206   Biso      1.000     C          -0.021522           
         C50       1.0000    0.58992   0.35603   0.69874   Biso      1.000     C          0.641098  
         C51       1.0000    0.50000   0.50000   0.29438   Biso      1.000     C          -0.127606           
         C52       1.0000    0.03767   0.92905   0.38125   Biso      1.000     C          -0.163629           
         C53       1.0000    0.00000   0.50000   0.68719   Biso      1.000     C          0.099203  
         C54       1.0000    0.46233   0.57095   0.88125   Biso      1.000     C          -0.163615           
         C55       1.0000    0.00000   0.00000   0.43719   Biso      1.000     C          0.099216  
         C56       1.0000    0.64397   0.08992   0.94874   Biso      1.000     C          0.641098  
         C57       1.0000    0.57124   0.03881   0.01206   Biso      1.000     C          -0.021524           
         C58       1.0000    0.57095   0.03767   0.13125   Biso      1.000     C          -0.163629           
         C59       1.0000    0.07095   0.53767   0.63125   Biso      1.000     C          -0.163615           
         C60       1.0000    0.07124   0.53881   0.51206   Biso      1.000     C          -0.021526           
         C61       1.0000    0.14397   0.58992   0.44874   Biso      1.000     C          0.641099  
         C62       1.0000    0.50000   0.00000   0.18719   Biso      1.000     C          0.099216  
         C63       1.0000    0.50000   0.00000   0.95562   Biso      1.000     C          -0.127606           
         C64       1.0000    0.00000   0.50000   0.45562   Biso      1.000     C          -0.127606           
         H1        1.0000    0.81486   0.25000   0.62500   Biso      1.000     H          0.450418  
         H2        1.0000    0.50000   0.50000   0.62900   Biso      1.000     H          0.130884  
         H3        1.0000    0.00000   0.00000   0.12900   Biso      1.000     H          0.130884  
         H4        1.0000    0.00000   0.00000   0.87100   Biso      1.000     H          0.130884  
         H5        1.0000    0.11838   0.92682   0.59265   Biso      1.000     H          0.123615  
         H6        1.0000    0.25000   0.68514   0.87500   Biso      1.000     H          0.450418  
         H7        1.0000    0.50000   0.00000   0.62100   Biso      1.000     H          0.130884  
         H8        1.0000    0.25000   0.81486   0.37500   Biso      1.000     H          0.450418  
         H9        1.0000    0.50000   0.00000   0.87900   Biso      1.000     H          0.130884  
         H10       1.0000    0.75000   0.31486   0.87500   Biso      1.000     H          0.450418  
         H11       1.0000    0.18514   0.75000   0.62500   Biso      1.000     H          0.450418  
         H12       1.0000    0.00000   0.50000   0.12100   Biso      1.000     H          0.130884  
         H13       1.0000    0.68514   0.25000   0.12500   Biso      1.000     H          0.450418  
         H14       1.0000    0.31486   0.75000   0.12500   Biso      1.000     H          0.450418  
         H15       1.0000    0.00000   0.50000   0.37900   Biso      1.000     H          0.130884  
         H16       1.0000    0.75000   0.18514   0.37500   Biso      1.000     H          0.450418  
         H17       1.0000    0.07318   0.61838   0.84265   Biso      1.000     H          0.123615  
         H18       1.0000    0.50000   0.50000   0.37100   Biso      1.000     H          0.130884  
         H19       1.0000    0.42682   0.61838   0.90735   Biso      1.000     H          0.123614  
         H20       1.0000    0.61838   0.42682   0.09265   Biso      1.000     H          0.123614  
         H21       1.0000    0.88162   0.42682   0.65735   Biso      1.000     H          0.123615  
         H22       1.0000    0.92682   0.38162   0.84265   Biso      1.000     H          0.123615  
         H23       1.0000    0.11838   0.57318   0.65735   Biso      1.000     H          0.123614  
         H24       1.0000    0.61838   0.07318   0.15735   Biso      1.000     H          0.123615  
         H25       1.0000    0.42682   0.88162   0.34265   Biso      1.000     H          0.123615  
         H26       1.0000    0.57318   0.11838   0.34265   Biso      1.000     H          0.123615  
         H27       1.0000    0.92682   0.11838   0.40735   Biso      1.000     H          0.123615  
         H28       1.0000    0.38162   0.92682   0.15735   Biso      1.000     H          0.123615  
         H29       1.0000    0.88162   0.07318   0.59265   Biso      1.000     H          0.123615  
         H30       1.0000    0.57318   0.38162   0.90735   Biso      1.000     H          0.123614  
         H31       1.0000    0.07318   0.88162   0.40735   Biso      1.000     H          0.123615  
         H32       1.0000    0.38162   0.57318   0.09265   Biso      1.000     H          0.123614  
         O1        1.0000    0.89613   0.21355   0.25390   Biso      1.000     O          -0.590355           
         O2        1.0000    0.28645   0.89613   0.00390   Biso      1.000     O          -0.590355           
         O3        1.0000    0.62488   0.37919   0.60604   Biso      1.000     O          -0.56782  
         O4        1.0000    0.87919   0.37512   0.35604   Biso      1.000     O          -0.56782  
         O5        1.0000    0.10387   0.78645   0.25390   Biso      1.000     O          -0.590355           
         O6        1.0000    0.78645   0.39613   0.50390   Biso      1.000     O          -0.590355           
         O7        1.0000    0.21355   0.60387   0.50390   Biso      1.000     O          -0.590355           
         O8        1.0000    0.87512   0.12081   0.10604   Biso      1.000     O          -0.56782  
         O9        1.0000    0.12488   0.87919   0.10604   Biso      1.000     O          -0.56782  
         O10       1.0000    0.62081   0.12488   0.85604   Biso      1.000     O          -0.56782  
         O11       1.0000    0.71355   0.10387   0.00390   Biso      1.000     O          -0.590355           
         O12       1.0000    0.37919   0.87512   0.85604   Biso      1.000     O          -0.56782  
         O13       1.0000    0.37512   0.62081   0.60604   Biso      1.000     O          -0.56782  
         O14       1.0000    0.39613   0.71355   0.75390   Biso      1.000     O          -0.590355           
         O15       1.0000    0.12081   0.62488   0.35604   Biso      1.000     O          -0.56782  
         O16       1.0000    0.21355   0.89613   0.74610   Biso      1.000     O          -0.590355           
         O17       1.0000    0.75000   0.24448   0.37500   Biso      1.000     O          -1.012943           
         O18       1.0000    0.89613   0.28645   0.99610   Biso      1.000     O          -0.590355           
         O19       1.0000    0.12081   0.87512   0.89396   Biso      1.000     O          -0.56782  
         O20       1.0000    0.62081   0.37512   0.39396   Biso      1.000     O          -0.56782  
         O21       1.0000    0.71355   0.39613   0.24610   Biso      1.000     O          -0.590355           
         O22       1.0000    0.37919   0.62488   0.39396   Biso      1.000     O          -0.56782  
         O23       1.0000    0.28645   0.60387   0.24610   Biso      1.000     O          -0.590355           
         O24       1.0000    0.87919   0.12488   0.89396   Biso      1.000     O          -0.56782  
         O25       1.0000    0.78645   0.10387   0.74610   Biso      1.000     O          -0.590355           
         O26       1.0000    0.12488   0.62081   0.14396   Biso      1.000     O          -0.56782  
         O27       1.0000    0.10387   0.71355   0.99610   Biso      1.000     O          -0.590355           
         O28       1.0000    0.25000   0.74448   0.87500   Biso      1.000     O          -1.012944           
         O29       1.0000    0.62488   0.12081   0.64396   Biso      1.000     O          -0.56782  
         O30       1.0000    0.60387   0.21355   0.49610   Biso      1.000     O          -0.590355           
         O31       1.0000    0.25552   0.75000   0.12500   Biso      1.000     O          -1.012944           
         O32       1.0000    0.74448   0.25000   0.12500   Biso      1.000     O          -1.012943           
         O33       1.0000    0.37512   0.87919   0.64396   Biso      1.000     O          -0.56782  
         O34       1.0000    0.24448   0.75000   0.62500   Biso      1.000     O          -1.012943           
         O35       1.0000    0.39613   0.78645   0.49610   Biso      1.000     O          -0.590355           
         O36       1.0000    0.75000   0.25552   0.87500   Biso      1.000     O          -1.012944           
         O37       1.0000    0.25000   0.75552   0.37500   Biso      1.000     O          -1.012943           
         O38       1.0000    0.87512   0.37919   0.14396   Biso      1.000     O          -0.56782  
         O39       1.0000    0.75552   0.25000   0.62500   Biso      1.000     O          -1.012943           
         O40       1.0000    0.60387   0.28645   0.75390   Biso      1.000     O          -0.590355 