
##########################################################################
#               Crystallographic Information Format file
#               Produced by PyCifRW module
#
#  This is a CIF file.  CIF has been adopted by the International
#  Union of Crystallography as the standard for data archiving and
#  transmission.
#
#  For information on this file format, follow the CIF links at
#  http://www.iucr.org
##########################################################################

data_image0

_cell_length_a                          14.7854
_cell_length_b                          14.7854
_cell_length_c                          11.774
_cell_angle_alpha                       90
_cell_angle_beta                        90
_cell_angle_gamma                       90
_symmetry_space_group_name_H-M          'P 1'
_symmetry_int_tables_number             1
loop_
  _symmetry_equiv_pos_as_xyz
         'x, y, z' 
loop_
  _atom_site_label
  _atom_site_occupancy
  _atom_site_fract_x
  _atom_site_fract_y
  _atom_site_fract_z
  _atom_site_thermal_displace_type
  _atom_site_B_iso_or_equiv
  _atom_site_type_symbol
  _atom_site_charge
         Al1       1.0000    0.69243   0.19243   0.75000   Biso      1.000     Al          1.6822740000000003  
         Al2       1.0000    0.30757   0.80757   0.75000   Biso      1.000     Al          1.6822740000000003  
         Al3       1.0000    0.30757   0.69243   0.50000   Biso      1.000     Al          1.6822740000000003  
         Al4       1.0000    0.80757   0.19243   0.00000   Biso      1.000     Al          1.6822740000000003  
         Al5       1.0000    0.19243   0.69243   0.25000   Biso      1.000     Al          1.6822740000000003  
         Al6       1.0000    0.19243   0.80757   0.00000   Biso      1.000     Al          1.6822740000000003  
         Al7       1.0000    0.69243   0.30757   0.50000   Biso      1.000     Al          1.6822740000000003  
         Al8       1.0000    0.80757   0.30757   0.25000   Biso      1.000     Al          1.6822740000000003  
         C1        1.0000    0.90575   0.36275   0.05300   Biso      1.000     C          0.66078   
         C2        1.0000    0.43076   0.95688   0.12672   Biso      1.000     C          -0.131009           
         C3        1.0000    0.43076   0.95688   0.00845   Biso      1.000     C          -0.034217000000000004         
         C4        1.0000    0.40575   0.86275   0.55300   Biso      1.000     C          0.66078   
         C5        1.0000    0.45688   0.93076   0.49155   Biso      1.000     C          -0.034217000000000004         
         C6        1.0000    0.56924   0.45688   0.24155   Biso      1.000     C          -0.034217000000000004         
         C7        1.0000    0.50000   0.50000   0.69931   Biso      1.000     C          -0.088601           
         C8        1.0000    0.45688   0.93076   0.37328   Biso      1.000     C          -0.131009           
         C9        1.0000    0.50000   0.50000   0.93586   Biso      1.000     C          0.066131  
         C10       1.0000    0.59425   0.13725   0.55300   Biso      1.000     C          0.66078   
         C11       1.0000    0.54312   0.06924   0.49155   Biso      1.000     C          -0.034217000000000004         
         C12       1.0000    0.54312   0.06924   0.37328   Biso      1.000     C          -0.131009           
         C13       1.0000    0.95688   0.43076   0.99155   Biso      1.000     C          -0.034217000000000004         
         C14       1.0000    0.95688   0.43076   0.87328   Biso      1.000     C          -0.131009           
         C15       1.0000    0.36275   0.90575   0.94700   Biso      1.000     C          0.66078   
         C16       1.0000    0.09425   0.63725   0.05300   Biso      1.000     C          0.66078   
         C17       1.0000    0.04312   0.56924   0.99155   Biso      1.000     C          -0.034217000000000004         
         C18       1.0000    0.04312   0.56924   0.87328   Biso      1.000     C          -0.131009           
         C19       1.0000    0.50000   0.50000   0.06414   Biso      1.000     C          0.066131  
         C20       1.0000    0.86275   0.09425   0.80300   Biso      1.000     C          0.66078   
         C21       1.0000    0.93076   0.04312   0.74155   Biso      1.000     C          -0.034217000000000004         
         C22       1.0000    0.93076   0.04312   0.62328   Biso      1.000     C          -0.131009           
         C23       1.0000    0.36275   0.59425   0.30300   Biso      1.000     C          0.66078   
         C24       1.0000    0.43076   0.54312   0.24155   Biso      1.000     C          -0.034217000000000004         
         C25       1.0000    0.43076   0.54312   0.12328   Biso      1.000     C          -0.131009           
         C26       1.0000    0.06924   0.95688   0.62328   Biso      1.000     C          -0.131009           
         C27       1.0000    0.06924   0.95688   0.74155   Biso      1.000     C          -0.034217000000000004         
         C28       1.0000    0.13725   0.90575   0.80300   Biso      1.000     C          0.66078   
         C29       1.0000    0.63725   0.40575   0.30300   Biso      1.000     C          0.66078   
         C30       1.0000    0.93076   0.45688   0.62672   Biso      1.000     C          -0.131009           
         C31       1.0000    0.93076   0.45688   0.50845   Biso      1.000     C          -0.034217000000000004         
         C32       1.0000    0.56924   0.45688   0.12328   Biso      1.000     C          -0.131009           
         C33       1.0000    0.00000   0.00000   0.19931   Biso      1.000     C          -0.088601           
         C34       1.0000    0.45688   0.56924   0.75845   Biso      1.000     C          -0.034217000000000004         
         C35       1.0000    0.40575   0.63725   0.69700   Biso      1.000     C          0.66078   
         C36       1.0000    0.00000   0.50000   0.05069   Biso      1.000     C          -0.088601           
         C37       1.0000    0.00000   0.50000   0.81414   Biso      1.000     C          0.066131  
         C38       1.0000    0.95688   0.06924   0.37672   Biso      1.000     C          -0.131009           
         C39       1.0000    0.95688   0.06924   0.25845   Biso      1.000     C          -0.034217000000000004         
         C40       1.0000    0.90575   0.13725   0.19700   Biso      1.000     C          0.66078   
         C41       1.0000    0.50000   0.00000   0.55069   Biso      1.000     C          -0.088601           
         C42       1.0000    0.86275   0.40575   0.44700   Biso      1.000     C          0.66078   
         C43       1.0000    0.50000   0.00000   0.31414   Biso      1.000     C          0.066131  
         C44       1.0000    0.04312   0.93076   0.25845   Biso      1.000     C          -0.034217000000000004         
         C45       1.0000    0.09425   0.86275   0.19700   Biso      1.000     C          0.66078   
         C46       1.0000    0.00000   0.00000   0.80069   Biso      1.000     C          -0.088601           
         C47       1.0000    0.00000   0.00000   0.56414   Biso      1.000     C          0.066131  
         C48       1.0000    0.54312   0.43076   0.87672   Biso      1.000     C          -0.131009           
         C49       1.0000    0.54312   0.43076   0.75845   Biso      1.000     C          -0.034217000000000004         
         C50       1.0000    0.59425   0.36275   0.69700   Biso      1.000     C          0.66078   
         C51       1.0000    0.50000   0.50000   0.30069   Biso      1.000     C          -0.088601           
         C52       1.0000    0.04312   0.93076   0.37672   Biso      1.000     C          -0.131009           
         C53       1.0000    0.00000   0.50000   0.68586   Biso      1.000     C          0.066131  
         C54       1.0000    0.45688   0.56924   0.87672   Biso      1.000     C          -0.131009           
         C55       1.0000    0.00000   0.00000   0.43586   Biso      1.000     C          0.066131  
         C56       1.0000    0.63725   0.09425   0.94700   Biso      1.000     C          0.66078   
         C57       1.0000    0.56924   0.04312   0.00845   Biso      1.000     C          -0.034217000000000004         
         C58       1.0000    0.56924   0.04312   0.12672   Biso      1.000     C          -0.131009           
         C59       1.0000    0.06924   0.54312   0.62672   Biso      1.000     C          -0.131009           
         C60       1.0000    0.06924   0.54312   0.50845   Biso      1.000     C          -0.034217000000000004         
         C61       1.0000    0.13725   0.59425   0.44700   Biso      1.000     C          0.66078   
         C62       1.0000    0.50000   0.00000   0.18586   Biso      1.000     C          0.066131  
         C63       1.0000    0.50000   0.00000   0.94931   Biso      1.000     C          -0.088601           
         C64       1.0000    0.00000   0.50000   0.44931   Biso      1.000     C          -0.088601           
         H1        1.0000    0.81494   0.25000   0.62500   Biso      1.000     H          0.419862  
         H2        1.0000    0.50000   0.50000   0.61013   Biso      1.000     H          0.131855  
         H3        1.0000    0.00000   0.00000   0.11013   Biso      1.000     H          0.131855  
         H4        1.0000    0.00000   0.00000   0.88987   Biso      1.000     H          0.131855  
         H5        1.0000    0.12144   0.92437   0.57869   Biso      1.000     H          0.11507200000000001           
         H6        1.0000    0.25000   0.68506   0.87500   Biso      1.000     H          0.419862  
         H7        1.0000    0.50000   0.00000   0.63987   Biso      1.000     H          0.131855  
         H8        1.0000    0.25000   0.81494   0.37500   Biso      1.000     H          0.419862  
         H9        1.0000    0.50000   0.00000   0.86013   Biso      1.000     H          0.131855  
         H10       1.0000    0.75000   0.31494   0.87500   Biso      1.000     H          0.419862  
         H11       1.0000    0.18506   0.75000   0.62500   Biso      1.000     H          0.419862  
         H12       1.0000    0.00000   0.50000   0.13987   Biso      1.000     H          0.131855  
         H13       1.0000    0.68506   0.25000   0.12500   Biso      1.000     H          0.419862  
         H14       1.0000    0.31494   0.75000   0.12500   Biso      1.000     H          0.419862  
         H15       1.0000    0.00000   0.50000   0.36013   Biso      1.000     H          0.131855  
         H16       1.0000    0.75000   0.18506   0.37500   Biso      1.000     H          0.419862  
         H17       1.0000    0.07563   0.62144   0.82869   Biso      1.000     H          0.115071  
         H18       1.0000    0.50000   0.50000   0.38987   Biso      1.000     H          0.131855  
         H19       1.0000    0.42437   0.62144   0.92131   Biso      1.000     H          0.11507200000000001           
         H20       1.0000    0.62144   0.42437   0.07869   Biso      1.000     H          0.11507200000000001           
         H21       1.0000    0.87856   0.42437   0.67131   Biso      1.000     H          0.115071  
         H22       1.0000    0.92437   0.37856   0.82869   Biso      1.000     H          0.115071  
         H23       1.0000    0.12144   0.57563   0.67131   Biso      1.000     H          0.115071  
         H24       1.0000    0.62144   0.07563   0.17131   Biso      1.000     H          0.115071  
         H25       1.0000    0.42437   0.87856   0.32869   Biso      1.000     H          0.115071  
         H26       1.0000    0.57563   0.12144   0.32869   Biso      1.000     H          0.115071  
         H27       1.0000    0.92437   0.12144   0.42131   Biso      1.000     H          0.115071  
         H28       1.0000    0.37856   0.92437   0.17131   Biso      1.000     H          0.115071  
         H29       1.0000    0.87856   0.07563   0.57869   Biso      1.000     H          0.115071  
         H30       1.0000    0.57563   0.37856   0.92131   Biso      1.000     H          0.11507200000000001           
         H31       1.0000    0.07563   0.87856   0.42131   Biso      1.000     H          0.115071  
         H32       1.0000    0.37856   0.57563   0.07869   Biso      1.000     H          0.115071  
         O1        1.0000    0.87500   0.11984   0.09997   Biso      1.000     O          -0.58535  
         O2        1.0000    0.38016   0.87500   0.84997   Biso      1.000     O          -0.58535  
         O3        1.0000    0.60774   0.28648   0.74083   Biso      1.000     O          -0.623255           
         O4        1.0000    0.78648   0.39226   0.49083   Biso      1.000     O          -0.623255           
         O5        1.0000    0.12500   0.88016   0.09997   Biso      1.000     O          -0.58535  
         O6        1.0000    0.88016   0.37500   0.34997   Biso      1.000     O          -0.58535  
         O7        1.0000    0.11984   0.62500   0.34997   Biso      1.000     O          -0.58535  
         O8        1.0000    0.89226   0.21352   0.24083   Biso      1.000     O          -0.623255           
         O9        1.0000    0.10774   0.78648   0.24083   Biso      1.000     O          -0.623255           
         O10       1.0000    0.71352   0.10774   0.99083   Biso      1.000     O          -0.623255           
         O11       1.0000    0.61984   0.12500   0.84997   Biso      1.000     O          -0.58535  
         O12       1.0000    0.28648   0.89226   0.99083   Biso      1.000     O          -0.623255           
         O13       1.0000    0.39226   0.71352   0.74083   Biso      1.000     O          -0.623255           
         O14       1.0000    0.37500   0.61984   0.59997   Biso      1.000     O          -0.58535  
         O15       1.0000    0.21352   0.60774   0.49083   Biso      1.000     O          -0.623255           
         O16       1.0000    0.11984   0.87500   0.90003   Biso      1.000     O          -0.58535  
         O17       1.0000    0.75000   0.24750   0.37500   Biso      1.000     O          -1.0155610000000002           
         O18       1.0000    0.87500   0.38016   0.15003   Biso      1.000     O          -0.58535  
         O19       1.0000    0.21352   0.89226   0.75917   Biso      1.000     O          -0.623255           
         O20       1.0000    0.71352   0.39226   0.25917   Biso      1.000     O          -0.623255           
         O21       1.0000    0.61984   0.37500   0.40003   Biso      1.000     O          -0.58535  
         O22       1.0000    0.28648   0.60774   0.25917   Biso      1.000     O          -0.623255           
         O23       1.0000    0.38016   0.62500   0.40003   Biso      1.000     O          -0.58535  
         O24       1.0000    0.78648   0.10774   0.75917   Biso      1.000     O          -0.623255           
         O25       1.0000    0.88016   0.12500   0.90003   Biso      1.000     O          -0.58535  
         O26       1.0000    0.10774   0.71352   0.00917   Biso      1.000     O          -0.623255           
         O27       1.0000    0.12500   0.61984   0.15003   Biso      1.000     O          -0.58535  
         O28       1.0000    0.25000   0.74750   0.87500   Biso      1.000     O          -1.0155610000000002           
         O29       1.0000    0.60774   0.21352   0.50917   Biso      1.000     O          -0.623255           
         O30       1.0000    0.62500   0.11984   0.65003   Biso      1.000     O          -0.58535  
         O31       1.0000    0.25250   0.75000   0.12500   Biso      1.000     O          -1.0155610000000002           
         O32       1.0000    0.74750   0.25000   0.12500   Biso      1.000     O          -1.0155610000000002           
         O33       1.0000    0.39226   0.78648   0.50917   Biso      1.000     O          -0.623255           
         O34       1.0000    0.24750   0.75000   0.62500   Biso      1.000     O          -1.0155610000000002           
         O35       1.0000    0.37500   0.88016   0.65003   Biso      1.000     O          -0.58535  
         O36       1.0000    0.75000   0.25250   0.87500   Biso      1.000     O          -1.0155610000000002           
         O37       1.0000    0.25000   0.75250   0.37500   Biso      1.000     O          -1.0155610000000002           
         O38       1.0000    0.89226   0.28648   0.00917   Biso      1.000     O          -0.623255           
         O39       1.0000    0.75250   0.25000   0.62500   Biso      1.000     O          -1.0155610000000002           
         O40       1.0000    0.62500   0.38016   0.59997   Biso      1.000     O          -0.58535 