
##########################################################################
#               Crystallographic Information Format file
#               Produced by PyCifRW module
#
#  This is a CIF file.  CIF has been adopted by the International
#  Union of Crystallography as the standard for data archiving and
#  transmission.
#
#  For information on this file format, follow the CIF links at
#  http://www.iucr.org
##########################################################################

data_image0

_cell_length_a                          11.7785
_cell_length_b                          12.0049
_cell_length_c                          12.0049
_cell_angle_alpha                       76.0745
_cell_angle_beta                        60.6219
_cell_angle_gamma                       60.6219
_symmetry_space_group_name_H-M          'P 1'
_symmetry_int_tables_number             1
loop_
  _symmetry_equiv_pos_as_xyz
         'x, y, z' 
loop_
  _atom_site_label
  _atom_site_occupancy
  _atom_site_fract_x
  _atom_site_fract_y
  _atom_site_fract_z
  _atom_site_thermal_displace_type
  _atom_site_B_iso_or_equiv
  _atom_site_type_symbol
  _atom_site_charge
         Al1       1.0000    0.19440   0.00000   0.61120   Biso      1.000     Al          1.668484  
         Al2       1.0000    0.44440   0.11120   0.50000   Biso      1.000     Al          1.6684869999999998  
         Al3       1.0000    0.80560   0.00000   0.38880   Biso      1.000     Al          1.6684869999999998  
         Al4       1.0000    0.05560   0.88880   0.50000   Biso      1.000     Al          1.668484  
         C1        1.0000    0.03505   0.38801   0.52851   Biso      1.000     C          -0.036991           
         C2        1.0000    0.14877   0.26857   0.54283   Biso      1.000     C          0.663775  
         C3        1.0000    0.55496   0.61199   0.52851   Biso      1.000     C          -0.129671           
         C4        1.0000    0.56554   0.00000   0.00000   Biso      1.000     C          0.05955800000000001           
         C5        1.0000    0.81356   0.97149   0.88801   Biso      1.000     C          -0.036988           
         C6        1.0000    0.33347   0.97149   0.11199   Biso      1.000     C          -0.129669           
         C7        1.0000    0.05257   0.50000   0.50000   Biso      1.000     C          -0.087687           
         C8        1.0000    0.44743   0.50000   0.50000   Biso      1.000     C          -0.087687           
         C9        1.0000    0.94160   0.95717   0.76857   Biso      1.000     C          0.663772  
         C10       1.0000    0.95157   0.61199   0.47149   Biso      1.000     C          -0.036989999999999995         
         C11       1.0000    0.69546   0.38801   0.47149   Biso      1.000     C          -0.129665           
         C12       1.0000    0.69504   0.97149   0.88801   Biso      1.000     C          -0.129671           
         C13       1.0000    0.21495   0.97149   0.11199   Biso      1.000     C          -0.036991           
         C14       1.0000    0.30840   0.73143   0.54283   Biso      1.000     C          0.663772  
         C15       1.0000    0.55454   0.02851   0.11199   Biso      1.000     C          -0.129665           
         C16       1.0000    0.29843   0.02851   0.88801   Biso      1.000     C          -0.036989999999999995         
         C17       1.0000    0.66734   0.04283   0.23143   Biso      1.000     C          0.663773  
         C18       1.0000    0.19743   0.00000   0.00000   Biso      1.000     C          -0.087687           
         C19       1.0000    0.41695   0.02851   0.88801   Biso      1.000     C          -0.129662           
         C20       1.0000    0.81554   0.50000   0.50000   Biso      1.000     C          0.059557000000000006          
         C21       1.0000    0.80257   0.00000   0.00000   Biso      1.000     C          -0.087687           
         C22       1.0000    0.83305   0.61199   0.47149   Biso      1.000     C          -0.129662           
         C23       1.0000    0.96017   0.73143   0.45717   Biso      1.000     C          0.663784  
         C24       1.0000    0.43644   0.61199   0.52851   Biso      1.000     C          -0.036989           
         C25       1.0000    0.91653   0.38801   0.52851   Biso      1.000     C          -0.129669           
         C26       1.0000    0.67306   0.02851   0.11199   Biso      1.000     C          -0.036989           
         C27       1.0000    0.28983   0.04283   0.76857   Biso      1.000     C          0.663783  
         C28       1.0000    0.57694   0.38801   0.47149   Biso      1.000     C          -0.036989999999999995         
         C29       1.0000    0.58266   0.26857   0.45717   Biso      1.000     C          0.663774  
         C30       1.0000    0.43446   0.00000   0.00000   Biso      1.000     C          0.059557000000000006          
         C31       1.0000    0.10123   0.95717   0.23143   Biso      1.000     C          0.663775  
         C32       1.0000    0.68446   0.50000   0.50000   Biso      1.000     C          0.059557000000000006          
         H1        1.0000    0.14172   0.50000   0.50000   Biso      1.000     H          0.13103499999999998           
         H2        1.0000    0.34664   0.95005   0.19623   Biso      1.000     H          0.11508199999999999           
         H3        1.0000    0.89172   0.00000   0.00000   Biso      1.000     H          0.13103399999999998           
         H4        1.0000    0.44182   0.93318   0.43318   Biso      1.000     H          0.433004  
         H5        1.0000    0.70331   0.95005   0.80377   Biso      1.000     H          0.11508199999999999           
         H6        1.0000    0.90336   0.30377   0.54995   Biso      1.000     H          0.11508199999999999           
         H7        1.0000    0.75708   0.69623   0.45005   Biso      1.000     H          0.11508   
         H8        1.0000    0.35828   0.50000   0.50000   Biso      1.000     H          0.13103399999999998           
         H9        1.0000    0.45713   0.04995   0.19623   Biso      1.000     H          0.11508099999999999           
         H10       1.0000    0.62500   0.93318   0.56682   Biso      1.000     H          0.433004  
         H11       1.0000    0.12500   0.06682   0.43318   Biso      1.000     H          0.43300200000000005           
         H12       1.0000    0.79287   0.30377   0.45005   Biso      1.000     H          0.11508099999999999           
         H13       1.0000    0.80818   0.06682   0.56682   Biso      1.000     H          0.433004  
         H14       1.0000    0.49292   0.04995   0.80377   Biso      1.000     H          0.11508   
         H15       1.0000    0.54669   0.69623   0.54995   Biso      1.000     H          0.11508199999999999           
         H16       1.0000    0.10828   0.00000   0.00000   Biso      1.000     H          0.13103499999999998           
         O1        1.0000    0.38098   0.99402   0.49402   Biso      1.000     O          -1.019526           
         O2        1.0000    0.78093   0.99375   0.24431   Biso      1.000     O          -0.577589           
         O3        1.0000    0.70114   0.17901   0.39581   Biso      1.000     O          -0.627043           
         O4        1.0000    0.97404   0.89581   0.67901   Biso      1.000     O          -0.627042           
         O5        1.0000    0.86902   0.00598   0.50598   Biso      1.000     O          -1.019526           
         O6        1.0000    0.13015   0.89581   0.32099   Biso      1.000     O          -0.627045           
         O7        1.0000    0.12500   0.00598   0.49402   Biso      1.000     O          -1.019523           
         O8        1.0000    0.01899   0.00625   0.75569   Biso      1.000     O          -0.577588           
         O9        1.0000    0.27596   0.82099   0.60419   Biso      1.000     O          -0.627042           
         O10       1.0000    0.97476   0.00625   0.24431   Biso      1.000     O          -0.577591           
         O11       1.0000    0.34695   0.10419   0.67901   Biso      1.000     O          -0.627045           
         O12       1.0000    0.54886   0.10419   0.32099   Biso      1.000     O          -0.627042           
         O13       1.0000    0.46907   0.25569   0.50625   Biso      1.000     O          -0.577589           
         O14       1.0000    0.02468   0.74431   0.50625   Biso      1.000     O          -0.577599           
         O15       1.0000    0.23101   0.74431   0.49375   Biso      1.000     O          -0.577588           
         O16       1.0000    0.62500   0.99402   0.50598   Biso      1.000     O          -1.019526           
         O17       1.0000    0.22532   0.99375   0.75569   Biso      1.000     O          -0.577599           
         O18       1.0000    0.90305   0.82099   0.39581   Biso      1.000     O          -0.627045           
         O19       1.0000    0.11985   0.17901   0.60419   Biso      1.000     O          -0.627045           
         O20       1.0000    0.27524   0.25569   0.49375   Biso      1.000     O          -0.577591 