
##########################################################################
#               Crystallographic Information Format file
#               Produced by PyCifRW module
#
#  This is a CIF file.  CIF has been adopted by the International
#  Union of Crystallography as the standard for data archiving and
#  transmission.
#
#  For information on this file format, follow the CIF links at
#  http://www.iucr.org
##########################################################################

data_image0

_cell_length_a                          8.2221
_cell_length_b                          9.441
_cell_length_c                          11.932
_cell_angle_alpha                       90
_cell_angle_beta                        90
_cell_angle_gamma                       90
_symmetry_space_group_name_H-M          'P 1'
_symmetry_int_tables_number             1
loop_
  _symmetry_equiv_pos_as_xyz
         'x, y, z' 
loop_
  _atom_site_label
  _atom_site_occupancy
  _atom_site_fract_x
  _atom_site_fract_y
  _atom_site_fract_z
  _atom_site_thermal_displace_type
  _atom_site_B_iso_or_equiv
  _atom_site_type_symbol
  _atom_site_charge
         Ag1       1.0000    0.29460   0.11060   0.18180   Biso      1.000     Ag          0.281464  
         Ag2       1.0000    0.79460   0.88940   0.81820   Biso      1.000     Ag          0.281465  
         Ag3       1.0000    0.29460   0.38940   0.68180   Biso      1.000     Ag          0.281463  
         Ag4       1.0000    0.79460   0.61060   0.31820   Biso      1.000     Ag          0.281462  
         C1        1.0000    0.02390   0.94530   0.03900   Biso      1.000     C          0.251637  
         C2        1.0000    0.85030   0.77100   0.08200   Biso      1.000     C          0.107628  
         C3        1.0000    0.02610   0.85050   0.21290   Biso      1.000     C          0.158568  
         C4        1.0000    0.52390   0.05470   0.96100   Biso      1.000     C          0.251642  
         C5        1.0000    0.35030   0.22900   0.91800   Biso      1.000     C          0.107636  
         C6        1.0000    0.52610   0.14950   0.78710   Biso      1.000     C          0.158549  
         C7        1.0000    0.02390   0.55470   0.53900   Biso      1.000     C          0.251641  
         C8        1.0000    0.85030   0.72900   0.58200   Biso      1.000     C          0.107633  
         C9        1.0000    0.52390   0.44530   0.46100   Biso      1.000     C          0.251642  
         C10       1.0000    0.35030   0.27100   0.41800   Biso      1.000     C          0.107637  
         C11       1.0000    0.52610   0.35050   0.28710   Biso      1.000     C          0.158549  
         C12       1.0000    0.02610   0.64950   0.71290   Biso      1.000     C          0.158561  
         H1        1.0000    0.06150   0.82100   0.29310   Biso      1.000     H          0.054075  
         H2        1.0000    0.04090   0.03510   0.98310   Biso      1.000     H          0.053171  
         H3        1.0000    0.56150   0.32100   0.20690   Biso      1.000     H          0.054077  
         H4        1.0000    0.54090   0.53510   0.51690   Biso      1.000     H          0.053171  
         H5        1.0000    0.76720   0.79070   0.55530   Biso      1.000     H          0.0486    
         H6        1.0000    0.06150   0.67900   0.79310   Biso      1.000     H          0.054075  
         H7        1.0000    0.26720   0.20930   0.44470   Biso      1.000     H          0.0486    
         H8        1.0000    0.26720   0.29070   0.94470   Biso      1.000     H          0.048601  
         H9        1.0000    0.56150   0.17900   0.70690   Biso      1.000     H          0.054078  
         H10       1.0000    0.54090   0.96490   0.01690   Biso      1.000     H          0.053171  
         H11       1.0000    0.76720   0.70930   0.05530   Biso      1.000     H          0.048601  
         H12       1.0000    0.04090   0.46490   0.48310   Biso      1.000     H          0.05317   
         N1        1.0000    0.90430   0.76320   0.18690   Biso      1.000     N          -0.279517           
         N2        1.0000    0.09060   0.55450   0.64030   Biso      1.000     N          -0.346095           
         N3        1.0000    0.40690   0.36020   0.49480   Biso      1.000     N          -0.32953  
         N4        1.0000    0.40430   0.23680   0.81310   Biso      1.000     N          -0.279516           
         N5        1.0000    0.59060   0.05450   0.85970   Biso      1.000     N          -0.346096           
         N6        1.0000    0.90430   0.73680   0.68690   Biso      1.000     N          -0.279514           
         N7        1.0000    0.09060   0.94550   0.14030   Biso      1.000     N          -0.346099           
         N8        1.0000    0.40690   0.13980   0.99480   Biso      1.000     N          -0.329531           
         N9        1.0000    0.40430   0.26320   0.31310   Biso      1.000     N          -0.279514           
         N10       1.0000    0.90690   0.63980   0.50520   Biso      1.000     N          -0.329531           
         N11       1.0000    0.90690   0.86020   0.00520   Biso      1.000     N          -0.329529           
         N12       1.0000    0.59060   0.44550   0.35970   Biso      1.000     N          -0.346093 