
##########################################################################
#               Crystallographic Information Format file
#               Produced by PyCifRW module
#
#  This is a CIF file.  CIF has been adopted by the International
#  Union of Crystallography as the standard for data archiving and
#  transmission.
#
#  For information on this file format, follow the CIF links at
#  http://www.iucr.org
##########################################################################

data_image0

_cell_length_a                          10.102
_cell_length_b                          10.769
_cell_length_c                          14.4953
_cell_angle_alpha                       98.0125
_cell_angle_beta                        95.7037
_cell_angle_gamma                       110.535
_symmetry_space_group_name_H-M          'P 1'
_symmetry_int_tables_number             1
loop_
  _symmetry_equiv_pos_as_xyz
         'x, y, z' 
loop_
  _atom_site_label
  _atom_site_occupancy
  _atom_site_fract_x
  _atom_site_fract_y
  _atom_site_fract_z
  _atom_site_thermal_displace_type
  _atom_site_B_iso_or_equiv
  _atom_site_type_symbol
  _atom_site_charge
         C1        1.0000    0.88310   0.06560   0.71810   Biso      1.000     C          -0.168045           
         C2        1.0000    0.58830   0.49330   0.43460   Biso      1.000     C          -0.094669           
         C3        1.0000    0.25670   0.40420   0.09710   Biso      1.000     C          0.572241  
         C4        1.0000    0.22180   0.79410   0.99800   Biso      1.000     C          0.597338  
         C5        1.0000    0.65130   0.97790   0.90420   Biso      1.000     C          -0.12250699999999999          
         C6        1.0000    0.12260   0.06200   0.26840   Biso      1.000     C          0.100026  
         C7        1.0000    0.35380   0.46340   0.47100   Biso      1.000     C          -0.025307           
         C8        1.0000    0.48190   0.52080   0.91000   Biso      1.000     C          -0.111524           
         C9        1.0000    0.29990   0.80870   0.73910   Biso      1.000     C          0.577739  
         C10       1.0000    0.41170   0.50670   0.56540   Biso      1.000     C          -0.094666           
         C11       1.0000    0.64620   0.53660   0.52900   Biso      1.000     C          -0.025304           
         C12       1.0000    0.58750   0.96600   0.15260   Biso      1.000     C          -0.104746           
         C13       1.0000    0.87740   0.93800   0.73160   Biso      1.000     C          0.100024  
         C14       1.0000    0.36260   0.47850   0.95650   Biso      1.000     C          -0.098669           
         C15       1.0000    0.58230   0.08820   0.18910   Biso      1.000     C          -0.012773           
         C16       1.0000    0.34870   0.02210   0.09580   Biso      1.000     C          -0.12250599999999999          
         C17       1.0000    0.52910   0.12960   0.90890   Biso      1.000     C          -0.103235           
         C18       1.0000    0.46210   0.11910   0.16210   Biso      1.000     C          -0.116324           
         C19       1.0000    0.80280   0.57790   0.56130   Biso      1.000     C          0.5966090000000001  
         C20       1.0000    0.03450   0.82200   0.21410   Biso      1.000     C          0.09020700000000001           
         C21       1.0000    0.38440   0.45870   0.04700   Biso      1.000     C          -0.011899           
         C22       1.0000    0.98790   0.31480   0.77040   Biso      1.000     C          0.254295  
         C23       1.0000    0.03470   0.15670   0.86750   Biso      1.000     C          -0.16055899999999998          
         C24       1.0000    0.44080   0.45240   0.40390   Biso      1.000     C          -0.10004600000000001          
         C25       1.0000    0.97370   0.97090   0.12560   Biso      1.000     C          0.096551  
         C26       1.0000    0.19720   0.42210   0.43870   Biso      1.000     C          0.5966100000000001  
         C27       1.0000    0.96530   0.84330   0.13250   Biso      1.000     C          -0.160552           
         C28       1.0000    0.41770   0.91180   0.81090   Biso      1.000     C          -0.012777           
         C29       1.0000    0.63740   0.52150   0.04350   Biso      1.000     C          -0.09867100000000001          
         C30       1.0000    0.61560   0.54130   0.95300   Biso      1.000     C          -0.011889           
         C31       1.0000    0.64900   0.10010   0.93510   Biso      1.000     C          -0.008564           
         C32       1.0000    0.01210   0.68520   0.22960   Biso      1.000     C          0.254294  
         C33       1.0000    0.11690   0.93440   0.28190   Biso      1.000     C          -0.168046           
         C34       1.0000    0.35100   0.89990   0.06490   Biso      1.000     C          -0.008565999999999999         
         C35       1.0000    0.77820   0.20590   0.00200   Biso      1.000     C          0.5973390000000001  
         C36       1.0000    0.41250   0.03400   0.84740   Biso      1.000     C          -0.10473699999999998          
         C37       1.0000    0.47090   0.87040   0.09110   Biso      1.000     C          -0.103229           
         C38       1.0000    0.53790   0.88090   0.83790   Biso      1.000     C          -0.116323           
         C39       1.0000    0.55920   0.54760   0.59610   Biso      1.000     C          -0.100047           
         C40       1.0000    0.70010   0.19130   0.26090   Biso      1.000     C          0.577739  
         C41       1.0000    0.51810   0.47920   0.09000   Biso      1.000     C          -0.11151400000000002          
         C42       1.0000    0.74330   0.59580   0.90290   Biso      1.000     C          0.57224   
         C43       1.0000    0.96550   0.17800   0.78590   Biso      1.000     C          0.09020700000000001           
         C44       1.0000    0.02630   0.02910   0.87440   Biso      1.000     C          0.096559  
         Cd1       1.0000    0.00000   0.50000   0.00000   Biso      1.000     Cd          0.994233  
         Cd2       1.0000    0.02308   0.27707   0.17915   Biso      1.000     Cd          0.904673  
         Cd3       1.0000    0.90262   0.36299   0.40275   Biso      1.000     Cd          0.943198  
         Cd4       1.0000    0.09738   0.63701   0.59725   Biso      1.000     Cd          0.943192  
         Cd5       1.0000    0.97692   0.72293   0.82085   Biso      1.000     Cd          0.9046780000000001  
         H1        1.0000    0.91410   0.77120   0.08350   Biso      1.000     H          0.129762  
         H2        1.0000    0.33120   0.05290   0.83110   Biso      1.000     H          0.11604600000000001           
         H3        1.0000    0.16780   0.92490   0.33580   Biso      1.000     H          0.135804  
         H4        1.0000    0.59790   0.58110   0.65950   Biso      1.000     H          0.130021  
         H5        1.0000    0.45720   0.20140   0.18720   Biso      1.000     H          0.12091099999999999           
         H6        1.0000    0.72860   0.53580   0.07360   Biso      1.000     H          0.109054  
         H7        1.0000    0.82210   0.86240   0.68640   Biso      1.000     H          0.105681  
         H8        1.0000    0.64840   0.49130   0.39030   Biso      1.000     H          0.11791300000000002           
         H9        1.0000    0.52680   0.21350   0.93260   Biso      1.000     H          0.11458900000000001           
         H10       1.0000    0.54280   0.79860   0.81280   Biso      1.000     H          0.12091099999999999           
         H11       1.0000    0.72870   0.95680   0.92680   Biso      1.000     H          0.10973699999999999           
         H12       1.0000    0.17790   0.13760   0.31360   Biso      1.000     H          0.105681  
         H13       1.0000    0.47320   0.78650   0.06740   Biso      1.000     H          0.11458800000000001           
         H14       1.0000    0.27130   0.04320   0.07320   Biso      1.000     H          0.10973699999999999           
         H15       1.0000    0.46910   0.53520   0.84850   Biso      1.000     H          0.118599  
         H16       1.0000    0.07610   0.01660   0.92760   Biso      1.000     H          0.097183  
         H17       1.0000    0.35160   0.50870   0.60970   Biso      1.000     H          0.11791300000000002           
         H18       1.0000    0.66880   0.94710   0.16890   Biso      1.000     H          0.116047  
         H19       1.0000    0.08590   0.22880   0.91650   Biso      1.000     H          0.129762  
         H20       1.0000    0.53090   0.46480   0.15150   Biso      1.000     H          0.118599  
         H21       1.0000    0.92390   0.98340   0.07240   Biso      1.000     H          0.097184  
         H22       1.0000    0.27140   0.46420   0.92640   Biso      1.000     H          0.109054  
         H23       1.0000    0.83220   0.07510   0.66420   Biso      1.000     H          0.135804  
         H24       1.0000    0.40210   0.41890   0.34050   Biso      1.000     H          0.130021  
         N1        1.0000    0.04920   0.07690   0.19090   Biso      1.000     N          -0.21348699999999998          
         N2        1.0000    0.00470   0.57880   0.16580   Biso      1.000     N          -0.24934499999999998          
         N3        1.0000    0.00480   0.34860   0.68590   Biso      1.000     N          -0.281887           
         N4        1.0000    0.95080   0.92310   0.80910   Biso      1.000     N          -0.213488           
         N5        1.0000    0.01760   0.52270   0.78460   Biso      1.000     N          -0.071023           
         N6        1.0000    0.97780   0.52120   0.30340   Biso      1.000     N          -0.048072000000000004         
         N7        1.0000    0.02220   0.47880   0.69660   Biso      1.000     N          -0.047999           
         N8        1.0000    0.98240   0.47730   0.21540   Biso      1.000     N          -0.070963           
         N9        1.0000    0.99520   0.65140   0.31410   Biso      1.000     N          -0.281854           
         N10       1.0000    0.99530   0.42120   0.83420   Biso      1.000     N          -0.249325           
         O1        1.0000    0.13220   0.38620   0.05320   Biso      1.000     O          -0.604025           
         O2        1.0000    0.67100   0.26960   0.32000   Biso      1.000     O          -0.522154           
         O3        1.0000    0.27430   0.37400   0.17620   Biso      1.000     O          -0.524678           
         O4        1.0000    0.13590   0.34830   0.36130   Biso      1.000     O          -0.547141           
         O5        1.0000    0.14680   0.83650   0.94740   Biso      1.000     O          -0.5653279999999999           
         O6        1.0000    0.86410   0.65170   0.63870   Biso      1.000     O          -0.547142           
         O7        1.0000    0.85320   0.16350   0.05260   Biso      1.000     O          -0.565327           
         O8        1.0000    0.79900   0.32670   0.99920   Biso      1.000     O          -0.584537           
         O9        1.0000    0.82800   0.19130   0.26470   Biso      1.000     O          -0.595145           
         O10       1.0000    0.17200   0.80870   0.73530   Biso      1.000     O          -0.595144           
         O11       1.0000    0.32900   0.73040   0.68000   Biso      1.000     O          -0.522154           
         O12       1.0000    0.72570   0.62600   0.82380   Biso      1.000     O          -0.5246770000000001           
         O13       1.0000    0.12570   0.46360   0.49680   Biso      1.000     O          -0.589721           
         O14       1.0000    0.87430   0.53640   0.50320   Biso      1.000     O          -0.589721           
         O15       1.0000    0.20100   0.67330   0.00080   Biso      1.000     O          -0.584536           
         O16       1.0000    0.86780   0.61380   0.94680   Biso      1.000     O          -0.604025 