
##########################################################################
#               Crystallographic Information Format file
#               Produced by PyCifRW module
#
#  This is a CIF file.  CIF has been adopted by the International
#  Union of Crystallography as the standard for data archiving and
#  transmission.
#
#  For information on this file format, follow the CIF links at
#  http://www.iucr.org
##########################################################################

data_image0

_cell_length_a                          10.128
_cell_length_b                          12.648
_cell_length_c                          15.467
_cell_angle_alpha                       106.916
_cell_angle_beta                        104.122
_cell_angle_gamma                       104.247
_symmetry_space_group_name_H-M          'P 1'
_symmetry_int_tables_number             1
loop_
  _symmetry_equiv_pos_as_xyz
         'x, y, z' 
loop_
  _atom_site_label
  _atom_site_occupancy
  _atom_site_fract_x
  _atom_site_fract_y
  _atom_site_fract_z
  _atom_site_thermal_displace_type
  _atom_site_B_iso_or_equiv
  _atom_site_type_symbol
  _atom_site_charge
         C1        1.0000    0.14100   0.22820   0.81170   Biso      1.000     C          -0.229804           
         C2        1.0000    0.26220   0.64750   0.97020   Biso      1.000     C          -0.127432           
         C3        1.0000    0.87280   0.92560   0.92750   Biso      1.000     C          -0.110562           
         C4        1.0000    0.49840   0.98600   0.58610   Biso      1.000     C          -0.010814           
         C5        1.0000    0.72780   0.69020   0.12270   Biso      1.000     C          0.259857  
         C6        1.0000    0.38030   0.00930   0.44120   Biso      1.000     C          -0.13005999999999998          
         C7        1.0000    0.57390   0.30550   0.24660   Biso      1.000     C          0.074189  
         C8        1.0000    0.61970   0.99070   0.55880   Biso      1.000     C          -0.130056           
         C9        1.0000    0.89800   0.59970   0.73340   Biso      1.000     C          -0.12146199999999999          
         C10       1.0000    0.23630   0.44580   0.26160   Biso      1.000     C          -0.20612199999999997          
         C11       1.0000    0.21720   0.71240   0.77570   Biso      1.000     C          0.013687999999999999          
         C12       1.0000    0.42610   0.69450   0.75340   Biso      1.000     C          0.074189  
         C13       1.0000    0.77290   0.16390   0.91110   Biso      1.000     C          0.003365  
         C14       1.0000    0.00280   0.94090   0.91160   Biso      1.000     C          -0.11220799999999999          
         C15       1.0000    0.13140   0.01660   0.98360   Biso      1.000     C          -0.017581           
         C16       1.0000    0.45860   0.70510   0.24160   Biso      1.000     C          -0.025412           
         C17       1.0000    0.97660   0.72130   0.07140   Biso      1.000     C          0.041826999999999996          
         C18       1.0000    0.37950   0.99590   0.52720   Biso      1.000     C          -0.11988  
         C19       1.0000    0.85900   0.77180   0.18830   Biso      1.000     C          -0.22980599999999998          
         C20       1.0000    0.27220   0.30980   0.87730   Biso      1.000     C          0.259855  
         C21       1.0000    0.50160   0.01400   0.41390   Biso      1.000     C          -0.010811           
         C22       1.0000    0.28120   0.37200   0.97030   Biso      1.000     C          -0.208918           
         C23       1.0000    0.15700   0.35740   0.99440   Biso      1.000     C          -0.11961500000000001          
         C24       1.0000    0.22190   0.52150   0.70490   Biso      1.000     C          -0.106093           
         C25       1.0000    0.02340   0.27870   0.92860   Biso      1.000     C          0.041826  
         C26       1.0000    0.62050   0.00410   0.47280   Biso      1.000     C          -0.119881           
         C27       1.0000    0.18420   0.61600   0.25260   Biso      1.000     C          -0.236986           
         C28       1.0000    0.04860   0.56910   0.25680   Biso      1.000     C          -0.114475           
         C29       1.0000    0.99470   0.53910   0.73550   Biso      1.000     C          0.040179  
         C30       1.0000    0.85490   0.40890   0.26290   Biso      1.000     C          0.036211  
         C31       1.0000    0.73780   0.35250   0.02980   Biso      1.000     C          -0.127432           
         C32       1.0000    0.63640   0.42780   0.28630   Biso      1.000     C          -0.12421800000000001          
         C33       1.0000    0.50030   0.02610   0.31950   Biso      1.000     C          0.551325  
         C34       1.0000    0.00530   0.46090   0.26450   Biso      1.000     C          0.040177  
         C35       1.0000    0.88850   0.26930   0.95270   Biso      1.000     C          0.039573000000000004          
         C36       1.0000    0.27410   0.02900   0.96700   Biso      1.000     C          0.580569  
         C37       1.0000    0.78280   0.28760   0.22430   Biso      1.000     C          0.013693  
         C38       1.0000    0.36360   0.57220   0.71370   Biso      1.000     C          -0.12420899999999999          
         C39       1.0000    0.60710   0.73330   0.23640   Biso      1.000     C          -0.036612           
         C40       1.0000    0.62870   0.24280   0.98430   Biso      1.000     C          0.073161  
         C41       1.0000    0.76370   0.55420   0.73840   Biso      1.000     C          -0.20611500000000002          
         C42       1.0000    0.37130   0.75720   0.01570   Biso      1.000     C          0.073161  
         C43       1.0000    0.99720   0.05910   0.08840   Biso      1.000     C          -0.11220999999999999          
         C44       1.0000    0.86860   0.98340   0.01640   Biso      1.000     C          -0.017575           
         C45       1.0000    0.01920   0.21480   0.83860   Biso      1.000     C          -0.11129000000000001          
         C46       1.0000    0.86740   0.36430   0.01220   Biso      1.000     C          -0.104679           
         C47       1.0000    0.72590   0.97100   0.03300   Biso      1.000     C          0.580569  
         C48       1.0000    0.95140   0.43090   0.74320   Biso      1.000     C          -0.114474           
         C49       1.0000    0.10200   0.40030   0.26660   Biso      1.000     C          -0.121449           
         C50       1.0000    0.13260   0.63570   0.98780   Biso      1.000     C          -0.104682           
         C51       1.0000    0.14510   0.59110   0.73710   Biso      1.000     C          0.036223000000000005          
         C52       1.0000    0.12720   0.07440   0.07250   Biso      1.000     C          -0.110554           
         C53       1.0000    0.11150   0.73070   0.04730   Biso      1.000     C          0.039575  
         C54       1.0000    0.84300   0.64260   0.00560   Biso      1.000     C          -0.11961400000000001          
         C55       1.0000    0.27880   0.55480   0.25390   Biso      1.000     C          0.261752  
         C56       1.0000    0.98080   0.78520   0.16140   Biso      1.000     C          -0.11129000000000001          
         C57       1.0000    0.22710   0.83610   0.08890   Biso      1.000     C          0.0033659999999999996         
         C58       1.0000    0.77810   0.47850   0.29510   Biso      1.000     C          -0.106077           
         C59       1.0000    0.54140   0.29490   0.75840   Biso      1.000     C          -0.025412           
         C60       1.0000    0.71880   0.62800   0.02970   Biso      1.000     C          -0.208921           
         C61       1.0000    0.81580   0.38400   0.74740   Biso      1.000     C          -0.23698400000000003          
         C62       1.0000    0.49970   0.97390   0.68050   Biso      1.000     C          0.551326  
         C63       1.0000    0.72120   0.44520   0.74610   Biso      1.000     C          0.261751  
         C64       1.0000    0.39290   0.26670   0.76360   Biso      1.000     C          -0.036612           
         Cd1       1.0000    0.53107   0.03352   0.14654   Biso      1.000     Cd          0.88144   
         Cd2       1.0000    0.46893   0.96648   0.85346   Biso      1.000     Cd          0.88144   
         H1        1.0000    0.94120   0.43710   0.04080   Biso      1.000     H          0.111499  
         H2        1.0000    0.16290   0.40120   0.05590   Biso      1.000     H          0.106644  
         H3        1.0000    0.72420   0.41590   0.07070   Biso      1.000     H          0.12215899999999999           
         H4        1.0000    0.06890   0.83950   0.20590   Biso      1.000     H          0.11483399999999999           
         H5        1.0000    0.66880   0.71460   0.28410   Biso      1.000     H          0.089542  
         H6        1.0000    0.21620   0.90100   0.13000   Biso      1.000     H          0.098813  
         H7        1.0000    0.35220   0.18340   0.75020   Biso      1.000     H          0.107464  
         H8        1.0000    0.33120   0.28540   0.71590   Biso      1.000     H          0.089542  
         H9        1.0000    0.86510   0.81690   0.24950   Biso      1.000     H          0.130903  
         H10       1.0000    0.99580   0.10030   0.14850   Biso      1.000     H          0.112604  
         H11       1.0000    0.62990   0.57690   0.98410   Biso      1.000     H          0.136225  
         H12       1.0000    0.98520   0.61120   0.25430   Biso      1.000     H          0.10318699999999999           
         H13       1.0000    0.01480   0.38880   0.74570   Biso      1.000     H          0.10318699999999999           
         H14       1.0000    0.13490   0.18310   0.75050   Biso      1.000     H          0.130903  
         H15       1.0000    0.16670   0.76070   0.79750   Biso      1.000     H          0.09791   
         H16       1.0000    0.54230   0.23630   0.70200   Biso      1.000     H          0.095376  
         H17       1.0000    0.83330   0.23930   0.20250   Biso      1.000     H          0.09791   
         H18       1.0000    0.60790   0.29350   0.81470   Biso      1.000     H          0.08906900000000001           
         H19       1.0000    0.82220   0.55990   0.32270   Biso      1.000     H          0.115943  
         H20       1.0000    0.47820   0.27130   0.24090   Biso      1.000     H          0.094722  
         H21       1.0000    0.78720   0.87570   0.87770   Biso      1.000     H          0.116221  
         H22       1.0000    0.92480   0.67300   0.72860   Biso      1.000     H          0.116921  
         H23       1.0000    0.29910   0.01520   0.40180   Biso      1.000     H          0.11675   
         H24       1.0000    0.83710   0.59880   0.94410   Biso      1.000     H          0.106644  
         H25       1.0000    0.70210   0.00650   0.45490   Biso      1.000     H          0.116872  
         H26       1.0000    0.58310   0.47430   0.30650   Biso      1.000     H          0.11813900000000001           
         H27       1.0000    0.64780   0.81660   0.24980   Biso      1.000     H          0.107464  
         H28       1.0000    0.45770   0.76370   0.29800   Biso      1.000     H          0.095376  
         H29       1.0000    0.21160   0.68990   0.24880   Biso      1.000     H          0.12100699999999999           
         H30       1.0000    0.29790   0.99350   0.54510   Biso      1.000     H          0.116871  
         H31       1.0000    0.70070   0.59660   0.73670   Biso      1.000     H          0.130602  
         H32       1.0000    0.39210   0.70650   0.18530   Biso      1.000     H          0.08906900000000001           
         H33       1.0000    0.54050   0.23410   0.99450   Biso      1.000     H          0.098111  
         H34       1.0000    0.41690   0.52570   0.69350   Biso      1.000     H          0.11813900000000001           
         H35       1.0000    0.45950   0.76590   0.00550   Biso      1.000     H          0.098111  
         H36       1.0000    0.00420   0.89970   0.85150   Biso      1.000     H          0.112604  
         H37       1.0000    0.21280   0.12430   0.12230   Biso      1.000     H          0.116221  
         H38       1.0000    0.93110   0.16050   0.79410   Biso      1.000     H          0.11483299999999999           
         H39       1.0000    0.17780   0.44010   0.67730   Biso      1.000     H          0.115944  
         H40       1.0000    0.37010   0.42310   0.01590   Biso      1.000     H          0.136224  
         H41       1.0000    0.07520   0.32700   0.27140   Biso      1.000     H          0.11692000000000001           
         H42       1.0000    0.78380   0.09900   0.87000   Biso      1.000     H          0.098813  
         H43       1.0000    0.52180   0.72870   0.75910   Biso      1.000     H          0.094723  
         H44       1.0000    0.29930   0.40340   0.26330   Biso      1.000     H          0.130603  
         H45       1.0000    0.78840   0.31010   0.75120   Biso      1.000     H          0.12100699999999999           
         H46       1.0000    0.27580   0.58410   0.92930   Biso      1.000     H          0.12215799999999999           
         H47       1.0000    0.05880   0.56290   0.95920   Biso      1.000     H          0.111499  
         H48       1.0000    0.70090   0.98480   0.59820   Biso      1.000     H          0.116749  
         N1        1.0000    0.64620   0.23610   0.21670   Biso      1.000     N          -0.190579           
         N2        1.0000    0.35390   0.84950   0.07310   Biso      1.000     N          -0.21193499999999998          
         N3        1.0000    0.35380   0.76390   0.78330   Biso      1.000     N          -0.190578           
         N4        1.0000    0.64610   0.15050   0.92690   Biso      1.000     N          -0.21193499999999998          
         O1        1.0000    0.58710   0.40860   0.75350   Biso      1.000     O          -0.206288           
         O2        1.0000    0.73240   0.02080   0.11830   Biso      1.000     O          -0.5448810000000001           
         O3        1.0000    0.59370   0.94120   0.72450   Biso      1.000     O          -0.590386           
         O4        1.0000    0.40630   0.05880   0.27550   Biso      1.000     O          -0.590386           
         O5        1.0000    0.41290   0.59140   0.24650   Biso      1.000     O          -0.206288           
         O6        1.0000    0.39940   0.33430   0.85850   Biso      1.000     O          -0.21517399999999998          
         O7        1.0000    0.60060   0.66570   0.14150   Biso      1.000     O          -0.21517399999999998          
         O8        1.0000    0.39000   0.08270   0.03720   Biso      1.000     O          -0.6043229999999999           
         O9        1.0000    0.39990   0.99540   0.71140   Biso      1.000     O          -0.580896           
         O10       1.0000    0.26760   0.97920   0.88170   Biso      1.000     O          -0.5448810000000001           
         O11       1.0000    0.61000   0.91730   0.96280   Biso      1.000     O          -0.6043229999999999           
         O12       1.0000    0.60010   0.00460   0.28860   Biso      1.000     O          -0.580896 