
##########################################################################
#               Crystallographic Information Format file
#               Produced by PyCifRW module
#
#  This is a CIF file.  CIF has been adopted by the International
#  Union of Crystallography as the standard for data archiving and
#  transmission.
#
#  For information on this file format, follow the CIF links at
#  http://www.iucr.org
##########################################################################

data_image0

_cell_length_a                          7.7297
_cell_length_b                          10.2725
_cell_length_c                          16.0234
_cell_angle_alpha                       86.817
_cell_angle_beta                        85.974
_cell_angle_gamma                       77.107
_symmetry_space_group_name_H-M          'P 1'
_symmetry_int_tables_number             1
loop_
  _symmetry_equiv_pos_as_xyz
         'x, y, z' 
loop_
  _atom_site_label
  _atom_site_occupancy
  _atom_site_fract_x
  _atom_site_fract_y
  _atom_site_fract_z
  _atom_site_thermal_displace_type
  _atom_site_B_iso_or_equiv
  _atom_site_type_symbol
  _atom_site_charge
         C1        1.0000    0.91170   0.31500   0.74670   Biso      1.000     C          0.073809  
         C2        1.0000    0.61960   0.30510   0.69380   Biso      1.000     C          0.574908  
         C3        1.0000    0.01820   0.96640   0.82850   Biso      1.000     C          -0.002258           
         C4        1.0000    0.92120   0.96950   0.90420   Biso      1.000     C          -0.095652           
         C5        1.0000    0.82100   0.08970   0.93110   Biso      1.000     C          -0.050603           
         C6        1.0000    0.81880   0.20630   0.88300   Biso      1.000     C          -0.071834           
         C7        1.0000    0.91770   0.19850   0.80650   Biso      1.000     C          0.096857  
         C8        1.0000    0.71490   0.33880   0.91220   Biso      1.000     C          0.625889  
         C9        1.0000    0.94900   0.46700   0.03580   Biso      1.000     C          0.492602  
         C10       1.0000    0.42540   0.95830   0.50800   Biso      1.000     C          0.496312  
         C11       1.0000    0.51260   0.06130   0.15790   Biso      1.000     C          0.483898  
         C12       1.0000    0.38950   0.13860   0.22540   Biso      1.000     C          0.469481  
         C13       1.0000    0.08830   0.68500   0.25330   Biso      1.000     C          0.073809  
         C14       1.0000    0.23360   0.62210   0.29780   Biso      1.000     C          -0.06473  
         C15       1.0000    0.23330   0.49940   0.33850   Biso      1.000     C          -0.041944           
         C16       1.0000    0.08760   0.44270   0.33460   Biso      1.000     C          -0.078678           
         C17       1.0000    0.76640   0.37790   0.70220   Biso      1.000     C          -0.064729           
         C18       1.0000    0.76670   0.50060   0.66150   Biso      1.000     C          -0.041943           
         C19       1.0000    0.93940   0.51210   0.29490   Biso      1.000     C          -0.007184           
         C20       1.0000    0.05100   0.53300   0.96420   Biso      1.000     C          0.492603  
         C21       1.0000    0.08230   0.80150   0.19350   Biso      1.000     C          0.096846  
         C22       1.0000    0.18120   0.79370   0.11700   Biso      1.000     C          -0.071837           
         C23       1.0000    0.06060   0.48790   0.70510   Biso      1.000     C          -0.007184           
         C24       1.0000    0.61050   0.86140   0.77460   Biso      1.000     C          0.469481  
         C25       1.0000    0.38040   0.69490   0.30620   Biso      1.000     C          0.574912  
         C26       1.0000    0.98180   0.03360   0.17150   Biso      1.000     C          -0.002261           
         C27       1.0000    0.91240   0.55730   0.66540   Biso      1.000     C          -0.07868  
         C28       1.0000    0.17900   0.91030   0.06890   Biso      1.000     C          -0.050595           
         C29       1.0000    0.28510   0.66120   0.08780   Biso      1.000     C          0.625881  
         C30       1.0000    0.07880   0.03050   0.09580   Biso      1.000     C          -0.095652           
         C31       1.0000    0.48740   0.93870   0.84210   Biso      1.000     C          0.483875  
         C32       1.0000    0.57460   0.04170   0.49200   Biso      1.000     C          0.496314  
         Eu1       1.0000    0.35439   0.33627   0.06325   Biso      1.000     Eu          1.36596   
         Eu2       1.0000    0.61510   0.86838   0.32466   Biso      1.000     Eu          1.259297  
         Eu3       1.0000    0.38490   0.13162   0.67534   Biso      1.000     Eu          1.259308  
         Eu4       1.0000    0.64561   0.66373   0.93675   Biso      1.000     Eu          1.365947  
         H1        1.0000    0.33220   0.45460   0.36880   Biso      1.000     H          0.135947  
         H2        1.0000    0.08950   0.35600   0.35910   Biso      1.000     H          0.140837  
         H3        1.0000    0.91050   0.64400   0.64090   Biso      1.000     H          0.140827  
         H4        1.0000    0.75310   0.09270   0.98300   Biso      1.000     H          0.125102  
         H5        1.0000    0.92330   0.88970   0.93730   Biso      1.000     H          0.131884  
         H6        1.0000    0.91150   0.11620   0.19000   Biso      1.000     H          0.137236  
         H7        1.0000    0.08850   0.88380   0.81000   Biso      1.000     H          0.137235  
         H8        1.0000    0.83680   0.47550   0.29530   Biso      1.000     H          0.144305  
         H9        1.0000    0.66780   0.54540   0.63120   Biso      1.000     H          0.135944  
         H10       1.0000    0.16320   0.52450   0.70470   Biso      1.000     H          0.144303  
         H11       1.0000    0.07670   0.11030   0.06270   Biso      1.000     H          0.131886  
         H12       1.0000    0.24690   0.90730   0.01700   Biso      1.000     H          0.125096  
         N1        1.0000    0.01490   0.07880   0.78050   Biso      1.000     N          0.306684  
         N2        1.0000    0.98510   0.92120   0.21950   Biso      1.000     N          0.306694  
         N3        1.0000    0.94010   0.63110   0.25600   Biso      1.000     N          0.282079  
         N4        1.0000    0.05990   0.36890   0.74400   Biso      1.000     N          0.282078  
         O1        1.0000    0.20640   0.29730   0.77740   Biso      1.000     O          -0.416409           
         O2        1.0000    0.09970   0.07270   0.70480   Biso      1.000     O          -0.439628           
         O3        1.0000    0.49050   0.35600   0.65190   Biso      1.000     O          -0.539403           
         O4        1.0000    0.64010   0.18810   0.72880   Biso      1.000     O          -0.526308           
         O5        1.0000    0.75950   0.44350   0.88200   Biso      1.000     O          -0.570722           
         O6        1.0000    0.59190   0.33810   0.96770   Biso      1.000     O          -0.589999           
         O7        1.0000    0.78590   0.51570   0.04850   Biso      1.000     O          -0.470013           
         O8        1.0000    0.03790   0.36850   0.07620   Biso      1.000     O          -0.53796  
         O9        1.0000    0.33780   0.97050   0.57590   Biso      1.000     O          -0.444272           
         O10       1.0000    0.40680   0.88950   0.44730   Biso      1.000     O          -0.433441           
         O11       1.0000    0.39730   0.08830   0.29950   Biso      1.000     O          -0.456662           
         O12       1.0000    0.61790   0.95550   0.18130   Biso      1.000     O          -0.482825           
         O13       1.0000    0.29080   0.24750   0.20300   Biso      1.000     O          -0.510117           
         O14       1.0000    0.96210   0.63150   0.92380   Biso      1.000     O          -0.537952           
         O15       1.0000    0.79360   0.70270   0.22260   Biso      1.000     O          -0.416416           
         O16       1.0000    0.90030   0.92730   0.29520   Biso      1.000     O          -0.439631           
         O17       1.0000    0.50950   0.64400   0.34810   Biso      1.000     O          -0.53938  
         O18       1.0000    0.35990   0.81190   0.27120   Biso      1.000     O          -0.526288           
         O19       1.0000    0.24050   0.55650   0.11800   Biso      1.000     O          -0.570726           
         O20       1.0000    0.40810   0.66190   0.03230   Biso      1.000     O          -0.589968           
         O21       1.0000    0.49980   0.89330   0.91680   Biso      1.000     O          -0.512433           
         O22       1.0000    0.70920   0.75250   0.79700   Biso      1.000     O          -0.510142           
         O23       1.0000    0.38210   0.04450   0.81870   Biso      1.000     O          -0.482854           
         O24       1.0000    0.60270   0.91170   0.70050   Biso      1.000     O          -0.456605           
         O25       1.0000    0.59320   0.11050   0.55270   Biso      1.000     O          -0.433444           
         O26       1.0000    0.66220   0.02950   0.42410   Biso      1.000     O          -0.444267           
         O27       1.0000    0.21410   0.48430   0.95150   Biso      1.000     O          -0.470017           
         O28       1.0000    0.50020   0.10670   0.08320   Biso      1.000     O          -0.512482 