
##########################################################################
#               Crystallographic Information Format file
#               Produced by PyCifRW module
#
#  This is a CIF file.  CIF has been adopted by the International
#  Union of Crystallography as the standard for data archiving and
#  transmission.
#
#  For information on this file format, follow the CIF links at
#  http://www.iucr.org
##########################################################################

data_image0

_cell_length_a                          10.3123
_cell_length_b                          10.3123
_cell_length_c                          15.062
_cell_angle_alpha                       70.3279
_cell_angle_beta                        70.3279
_cell_angle_gamma                       77.8611
_symmetry_space_group_name_H-M          'P 1'
_symmetry_int_tables_number             1
loop_
  _symmetry_equiv_pos_as_xyz
         'x, y, z' 
loop_
  _atom_site_label
  _atom_site_occupancy
  _atom_site_fract_x
  _atom_site_fract_y
  _atom_site_fract_z
  _atom_site_thermal_displace_type
  _atom_site_B_iso_or_equiv
  _atom_site_type_symbol
  _atom_site_charge
         C1        1.0000    0.20960   0.59420   0.84690   Biso      1.000     C          -0.07750900000000001          
         C2        1.0000    0.65328   0.81188   0.63777   Biso      1.000     C          -0.014418           
         C3        1.0000    0.64756   0.95096   0.63270   Biso      1.000     C          -0.046846           
         C4        1.0000    0.54681   0.07721   0.62475   Biso      1.000     C          0.5553779999999999  
         C5        1.0000    0.13250   0.05490   0.33830   Biso      1.000     C          0.183805  
         C6        1.0000    0.89236   0.31236   0.43320   Biso      1.000     C          0.568192  
         C7        1.0000    0.00136   0.19376   0.41964   Biso      1.000     C          -0.022256           
         C8        1.0000    0.08210   0.09730   0.47600   Biso      1.000     C          -0.056616           
         C9        1.0000    0.09575   0.07095   0.57710   Biso      1.000     C          0.593812  
         C10       1.0000    0.98909   0.64569   0.38170   Biso      1.000     C          0.181383  
         C11       1.0000    0.32110   0.74650   0.31570   Biso      1.000     C          0.592696  
         C12       1.0000    0.18173   0.69953   0.37100   Biso      1.000     C          -0.016878999999999998         
         C13       1.0000    0.11466   0.64326   0.46990   Biso      1.000     C          -0.035492           
         C14       1.0000    0.14217   0.61457   0.56550   Biso      1.000     C          0.5728880000000001  
         C15       1.0000    0.64240   0.91760   0.37410   Biso      1.000     C          -0.092802           
         C16       1.0000    0.75790   0.00690   0.34330   Biso      1.000     C          -0.09308999999999999          
         C17       1.0000    0.55482   0.72962   0.63070   Biso      1.000     C          0.561905  
         C18       1.0000    0.84670   0.84370   0.64170   Biso      1.000     C          0.166735  
         C19       1.0000    0.91760   0.64240   0.87410   Biso      1.000     C          -0.092802           
         C20       1.0000    0.00690   0.75790   0.84330   Biso      1.000     C          -0.093091           
         C21       1.0000    0.84370   0.84670   0.14170   Biso      1.000     C          0.166735  
         C22       1.0000    0.72962   0.55482   0.13070   Biso      1.000     C          0.5619029999999999  
         C23       1.0000    0.81188   0.65328   0.13777   Biso      1.000     C          -0.014417           
         C24       1.0000    0.95096   0.64756   0.13270   Biso      1.000     C          -0.046846           
         C25       1.0000    0.07721   0.54681   0.12475   Biso      1.000     C          0.5553779999999999  
         C26       1.0000    0.05490   0.13250   0.83830   Biso      1.000     C          0.183806  
         C27       1.0000    0.31236   0.89236   0.93320   Biso      1.000     C          0.5681930000000001  
         C28       1.0000    0.59420   0.20960   0.34690   Biso      1.000     C          -0.07750800000000001          
         C29       1.0000    0.19376   0.00136   0.91964   Biso      1.000     C          -0.022255           
         C30       1.0000    0.07095   0.09575   0.07710   Biso      1.000     C          0.5938329999999999  
         C31       1.0000    0.64569   0.98909   0.88170   Biso      1.000     C          0.181382  
         C32       1.0000    0.74650   0.32110   0.81570   Biso      1.000     C          0.592695  
         C33       1.0000    0.69953   0.18173   0.87100   Biso      1.000     C          -0.016880000000000003         
         C34       1.0000    0.64326   0.11466   0.96990   Biso      1.000     C          -0.035493000000000004         
         C35       1.0000    0.61457   0.14217   0.06550   Biso      1.000     C          0.5728880000000001  
         C36       1.0000    0.12520   0.47900   0.87170   Biso      1.000     C          -0.08304  
         C37       1.0000    0.09730   0.08210   0.97600   Biso      1.000     C          -0.056616999999999994         
         C38       1.0000    0.47900   0.12520   0.37170   Biso      1.000     C          -0.08304  
         Cd1       1.0000    0.32715   0.85749   0.48432   Biso      1.000     Cd          0.937356  
         Cd2       1.0000    0.54019   0.84195   0.11716   Biso      1.000     Cd          0.936876  
         Cd3       1.0000    0.17009   0.78933   0.15322   Biso      1.000     Cd          0.923607  
         Cd4       1.0000    0.91162   0.28028   0.22959   Biso      1.000     Cd          0.929896  
         Cd5       1.0000    0.84195   0.54019   0.61716   Biso      1.000     Cd          0.936875  
         Cd6       1.0000    0.85749   0.32715   0.98432   Biso      1.000     Cd          0.937356  
         Cd7       1.0000    0.78933   0.17009   0.65322   Biso      1.000     Cd          0.9236049999999999  
         Cd8       1.0000    0.28028   0.91162   0.72959   Biso      1.000     Cd          0.929896  
         H1        1.0000    0.39510   0.16570   0.41090   Biso      1.000     H          0.118924  
         H2        1.0000    0.60610   0.21330   0.40710   Biso      1.000     H          0.11114600000000001           
         H3        1.0000    0.84050   0.96590   0.30340   Biso      1.000     H          0.102185  
         H4        1.0000    0.77800   0.00660   0.40190   Biso      1.000     H          0.098299  
         H5        1.0000    0.14560   0.70980   0.73380   Biso      1.000     H          0.26021500000000003           
         H6        1.0000    0.63280   0.90360   0.31620   Biso      1.000     H          0.106116  
         H7        1.0000    0.46250   0.12770   0.31140   Biso      1.000     H          0.113124  
         H8        1.0000    0.98590   0.52430   0.98140   Biso      1.000     H          0.24180500000000002           
         H9        1.0000    0.66620   0.82760   0.41660   Biso      1.000     H          0.11530699999999999           
         H10       1.0000    0.91470   0.63550   0.36390   Biso      1.000     H          0.090744  
         H11       1.0000    0.57040   0.30360   0.30950   Biso      1.000     H          0.128486  
         H12       1.0000    0.17140   0.01220   0.28840   Biso      1.000     H          0.08531799999999999           
         H13       1.0000    0.82600   0.93800   0.14380   Biso      1.000     H          0.07875499999999999           
         H14       1.0000    0.01220   0.17140   0.78840   Biso      1.000     H          0.08531799999999999           
         H15       1.0000    0.63550   0.91470   0.86390   Biso      1.000     H          0.09074299999999999           
         H16       1.0000    0.12770   0.46250   0.81140   Biso      1.000     H          0.113124  
         H17       1.0000    0.30360   0.57040   0.80950   Biso      1.000     H          0.128486  
         H18       1.0000    0.21330   0.60610   0.90710   Biso      1.000     H          0.11114600000000001           
         H19       1.0000    0.96590   0.84050   0.80340   Biso      1.000     H          0.102185  
         H20       1.0000    0.16570   0.39510   0.91090   Biso      1.000     H          0.118923  
         H21       1.0000    0.82760   0.66620   0.91660   Biso      1.000     H          0.11530699999999999           
         H22       1.0000    0.90360   0.63280   0.81620   Biso      1.000     H          0.106116  
         H23       1.0000    0.52430   0.98590   0.48140   Biso      1.000     H          0.24180500000000002           
         H24       1.0000    0.70980   0.14560   0.23380   Biso      1.000     H          0.26021500000000003           
         H25       1.0000    0.93800   0.82600   0.64380   Biso      1.000     H          0.07875499999999999           
         H26       1.0000    0.00660   0.77800   0.90190   Biso      1.000     H          0.098299  
         N1        1.0000    0.74734   0.77756   0.14416   Biso      1.000     N          -0.323827           
         N2        1.0000    0.98065   0.50945   0.92651   Biso      1.000     N          -0.317688           
         N3        1.0000    0.96703   0.77527   0.13584   Biso      1.000     N          -0.346303           
         N4        1.0000    0.16420   0.03546   0.83268   Biso      1.000     N          -0.328337           
         N5        1.0000    0.01384   0.16744   0.91952   Biso      1.000     N          -0.344224           
         N6        1.0000    0.60937   0.99177   0.97208   Biso      1.000     N          -0.311258           
         N7        1.0000    0.69917   0.10337   0.81615   Biso      1.000     N          -0.329314           
         N8        1.0000    0.14989   0.72729   0.78800   Biso      1.000     N          -0.319058           
         N9        1.0000    0.99177   0.60937   0.47208   Biso      1.000     N          -0.311257           
         N10       1.0000    0.77527   0.96703   0.63584   Biso      1.000     N          -0.346303           
         N11       1.0000    0.03546   0.16420   0.33268   Biso      1.000     N          -0.328337           
         N12       1.0000    0.16744   0.01384   0.41952   Biso      1.000     N          -0.344225           
         N13       1.0000    0.10337   0.69917   0.31615   Biso      1.000     N          -0.329315           
         N14       1.0000    0.50945   0.98065   0.42651   Biso      1.000     N          -0.317689           
         N15       1.0000    0.72729   0.14989   0.28800   Biso      1.000     N          -0.319058           
         N16       1.0000    0.77756   0.74734   0.64416   Biso      1.000     N          -0.323827           
         O1        1.0000    0.54507   0.06013   0.13902   Biso      1.000     O          -0.515146           
         O2        1.0000    0.76033   0.40385   0.85425   Biso      1.000     O          -0.524044           
         O3        1.0000    0.77838   0.34816   0.72312   Biso      1.000     O          -0.514142           
         O4        1.0000    0.97537   0.19171   0.09788   Biso      1.000     O          -0.557218           
         O5        1.0000    0.38156   0.84844   0.86045   Biso      1.000     O          -0.5140100000000001           
         O6        1.0000    0.34171   0.84793   0.01519   Biso      1.000     O          -0.538736           
         O7        1.0000    0.65912   0.24368   0.07054   Biso      1.000     O          -0.5305350000000001           
         O8        1.0000    0.18754   0.58156   0.11877   Biso      1.000     O          -0.458124           
         O9        1.0000    0.06847   0.42851   0.12036   Biso      1.000     O          -0.508029           
         O10       1.0000    0.13436   0.02238   0.13308   Biso      1.000     O          -0.508584           
         O11       1.0000    0.60406   0.61108   0.62056   Biso      1.000     O          -0.48343400000000003          
         O12       1.0000    0.58156   0.18754   0.61877   Biso      1.000     O          -0.458124           
         O13       1.0000    0.42851   0.06847   0.62036   Biso      1.000     O          -0.508033           
         O14       1.0000    0.84844   0.38156   0.36045   Biso      1.000     O          -0.514013           
         O15       1.0000    0.84793   0.34171   0.51519   Biso      1.000     O          -0.538736           
         O16       1.0000    0.02238   0.13436   0.63308   Biso      1.000     O          -0.508579           
         O17       1.0000    0.19171   0.97537   0.59788   Biso      1.000     O          -0.5572020000000001           
         O18       1.0000    0.34816   0.77838   0.22312   Biso      1.000     O          -0.514143           
         O19       1.0000    0.40385   0.76033   0.35425   Biso      1.000     O          -0.524044           
         O20       1.0000    0.06013   0.54507   0.63902   Biso      1.000     O          -0.515145           
         O21       1.0000    0.24368   0.65912   0.57054   Biso      1.000     O          -0.5305340000000001           
         O22       1.0000    0.78043   0.43157   0.13171   Biso      1.000     O          -0.544007           
         O23       1.0000    0.43157   0.78043   0.63171   Biso      1.000     O          -0.544008           
         O24       1.0000    0.61108   0.60406   0.12056   Biso      1.000     O          -0.483433 