
##########################################################################
#               Crystallographic Information Format file
#               Produced by PyCifRW module
#
#  This is a CIF file.  CIF has been adopted by the International
#  Union of Crystallography as the standard for data archiving and
#  transmission.
#
#  For information on this file format, follow the CIF links at
#  http://www.iucr.org
##########################################################################

data_image0

_cell_length_a                          8.505
_cell_length_b                          9.536
_cell_length_c                          13.145
_cell_angle_alpha                       90
_cell_angle_beta                        90
_cell_angle_gamma                       94.73
_symmetry_space_group_name_H-M          'P 1'
_symmetry_int_tables_number             1
loop_
  _symmetry_equiv_pos_as_xyz
         'x, y, z' 
loop_
  _atom_site_label
  _atom_site_occupancy
  _atom_site_fract_x
  _atom_site_fract_y
  _atom_site_fract_z
  _atom_site_thermal_displace_type
  _atom_site_B_iso_or_equiv
  _atom_site_type_symbol
  _atom_site_charge
         C1        1.0000    0.69840   0.75720   0.55220   Biso      1.000     C          0.610589  
         C2        1.0000    0.74620   0.01030   0.14700   Biso      1.000     C          0.5675279999999999  
         C3        1.0000    0.03970   0.74410   0.88920   Biso      1.000     C          0.5683520000000001  
         C4        1.0000    0.80160   0.74280   0.05220   Biso      1.000     C          0.610579  
         C5        1.0000    0.88240   0.00280   0.07410   Biso      1.000     C          -0.016543000000000002         
         C6        1.0000    0.02430   0.87400   0.95080   Biso      1.000     C          -0.027125           
         C7        1.0000    0.90750   0.87550   0.02620   Biso      1.000     C          -0.050477999999999995         
         C8        1.0000    0.24620   0.51030   0.35300   Biso      1.000     C          0.567523  
         C9        1.0000    0.53970   0.24410   0.61080   Biso      1.000     C          0.5683520000000001  
         C10       1.0000    0.30160   0.24280   0.44780   Biso      1.000     C          0.610583  
         C11       1.0000    0.38240   0.50280   0.42590   Biso      1.000     C          -0.01654  
         C12       1.0000    0.52430   0.37400   0.54920   Biso      1.000     C          -0.027129           
         C13       1.0000    0.40750   0.37550   0.47380   Biso      1.000     C          -0.050480000000000004         
         C14       1.0000    0.25380   0.98970   0.85300   Biso      1.000     C          0.567527  
         C15       1.0000    0.96030   0.25590   0.11080   Biso      1.000     C          0.5683560000000001  
         C16       1.0000    0.19840   0.25720   0.94780   Biso      1.000     C          0.610586  
         C17       1.0000    0.11760   0.99720   0.92590   Biso      1.000     C          -0.016541           
         C18       1.0000    0.97570   0.12600   0.04920   Biso      1.000     C          -0.027125           
         C19       1.0000    0.09250   0.12450   0.97380   Biso      1.000     C          -0.050477           
         C20       1.0000    0.61760   0.49720   0.57410   Biso      1.000     C          -0.016535           
         C21       1.0000    0.46030   0.75590   0.38920   Biso      1.000     C          0.568364  
         C22       1.0000    0.75380   0.48970   0.64700   Biso      1.000     C          0.567523  
         C23       1.0000    0.59250   0.62450   0.52620   Biso      1.000     C          -0.050481           
         C24       1.0000    0.47570   0.62600   0.45080   Biso      1.000     C          -0.027127999999999996         
         Eu1       1.0000    0.03952   0.49251   0.76835   Biso      1.000     Eu          1.49284   
         Eu2       1.0000    0.96048   0.50749   0.23165   Biso      1.000     Eu          1.492841  
         Eu3       1.0000    0.46048   0.00749   0.26835   Biso      1.000     Eu          1.4928350000000001  
         Eu4       1.0000    0.53952   0.99251   0.73165   Biso      1.000     Eu          1.492839  
         O1        1.0000    0.78250   0.58400   0.71230   Biso      1.000     O          -0.5373439999999999           
         O2        1.0000    0.46260   0.74790   0.29430   Biso      1.000     O          -0.542194           
         O3        1.0000    0.45040   0.87280   0.43300   Biso      1.000     O          -0.506571           
         O4        1.0000    0.83140   0.76880   0.51080   Biso      1.000     O          -0.365388           
         O5        1.0000    0.64910   0.84140   0.61420   Biso      1.000     O          -0.610974           
         O6        1.0000    0.65790   0.11030   0.13700   Biso      1.000     O          -0.582699           
         O7        1.0000    0.71750   0.91600   0.21230   Biso      1.000     O          -0.537342           
         O8        1.0000    0.03740   0.75210   0.79430   Biso      1.000     O          -0.542189           
         O9        1.0000    0.04960   0.62720   0.93300   Biso      1.000     O          -0.5065689999999999           
         O10       1.0000    0.66860   0.73120   0.01080   Biso      1.000     O          -0.36536799999999997          
         O11       1.0000    0.85090   0.65860   0.11420   Biso      1.000     O          -0.61097  
         O12       1.0000    0.21750   0.41600   0.28770   Biso      1.000     O          -0.537345           
         O13       1.0000    0.53740   0.25210   0.70570   Biso      1.000     O          -0.542193           
         O14       1.0000    0.54960   0.12720   0.56700   Biso      1.000     O          -0.506571           
         O15       1.0000    0.16860   0.23120   0.48920   Biso      1.000     O          -0.365375           
         O16       1.0000    0.35090   0.15860   0.38580   Biso      1.000     O          -0.6109720000000001           
         O17       1.0000    0.34210   0.88970   0.86300   Biso      1.000     O          -0.582703           
         O18       1.0000    0.28250   0.08400   0.78770   Biso      1.000     O          -0.537343           
         O19       1.0000    0.96260   0.24790   0.20570   Biso      1.000     O          -0.542196           
         O20       1.0000    0.95040   0.37280   0.06700   Biso      1.000     O          -0.506576           
         O21       1.0000    0.33140   0.26880   0.98920   Biso      1.000     O          -0.36538400000000004          
         O22       1.0000    0.14910   0.34140   0.88580   Biso      1.000     O          -0.610974           
         O23       1.0000    0.15790   0.61030   0.36300   Biso      1.000     O          -0.5826979999999999           
         O24       1.0000    0.84210   0.38970   0.63700   Biso      1.000     O          -0.5827 