
##########################################################################
#               Crystallographic Information Format file
#               Produced by PyCifRW module
#
#  This is a CIF file.  CIF has been adopted by the International
#  Union of Crystallography as the standard for data archiving and
#  transmission.
#
#  For information on this file format, follow the CIF links at
#  http://www.iucr.org
##########################################################################

data_image0

_cell_length_a                          8.627
_cell_length_b                          9.65
_cell_length_c                          13.218
_cell_angle_alpha                       90
_cell_angle_beta                        90
_cell_angle_gamma                       95.93
_symmetry_space_group_name_H-M          'P 1'
_symmetry_int_tables_number             1
loop_
  _symmetry_equiv_pos_as_xyz
         'x, y, z' 
loop_
  _atom_site_label
  _atom_site_occupancy
  _atom_site_fract_x
  _atom_site_fract_y
  _atom_site_fract_z
  _atom_site_thermal_displace_type
  _atom_site_B_iso_or_equiv
  _atom_site_type_symbol
  _atom_site_charge
         C1        1.0000    0.80670   0.74040   0.55140   Biso      1.000     C          0.664429  
         C2        1.0000    0.75580   0.49570   0.14190   Biso      1.000     C          0.616047  
         C3        1.0000    0.45550   0.75130   0.89010   Biso      1.000     C          0.616743  
         C4        1.0000    0.69330   0.75960   0.05140   Biso      1.000     C          0.664429  
         C5        1.0000    0.61870   0.50050   0.07260   Biso      1.000     C          -0.05786  
         C6        1.0000    0.47250   0.62340   0.95140   Biso      1.000     C          -0.061768           
         C7        1.0000    0.59010   0.62570   0.02540   Biso      1.000     C          -0.077171           
         C8        1.0000    0.25580   0.99570   0.35810   Biso      1.000     C          0.616047  
         C9        1.0000    0.95550   0.25130   0.60990   Biso      1.000     C          0.616743  
         C10       1.0000    0.19330   0.25960   0.44860   Biso      1.000     C          0.664429  
         C11       1.0000    0.11870   0.00050   0.42740   Biso      1.000     C          -0.05786  
         C12       1.0000    0.97250   0.12340   0.54860   Biso      1.000     C          -0.061767           
         C13       1.0000    0.09010   0.12570   0.47460   Biso      1.000     C          -0.077171           
         C14       1.0000    0.24420   0.50430   0.85810   Biso      1.000     C          0.616047  
         C15       1.0000    0.54450   0.24870   0.10990   Biso      1.000     C          0.616743  
         C16       1.0000    0.30670   0.24040   0.94860   Biso      1.000     C          0.664429  
         C17       1.0000    0.38130   0.49950   0.92740   Biso      1.000     C          -0.05786  
         C18       1.0000    0.52750   0.37660   0.04860   Biso      1.000     C          -0.061768           
         C19       1.0000    0.40990   0.37430   0.97460   Biso      1.000     C          -0.077171           
         C20       1.0000    0.88130   0.99950   0.57260   Biso      1.000     C          -0.05786  
         C21       1.0000    0.04450   0.74870   0.39010   Biso      1.000     C          0.616743  
         C22       1.0000    0.74420   0.00430   0.64190   Biso      1.000     C          0.616048  
         C23       1.0000    0.90990   0.87430   0.52540   Biso      1.000     C          -0.07717  
         C24       1.0000    0.02750   0.87660   0.45140   Biso      1.000     C          -0.061768           
         Ce1       1.0000    0.45516   0.00433   0.76576   Biso      1.000     Ce          2.100218  
         Ce2       1.0000    0.54484   0.99567   0.23424   Biso      1.000     Ce          2.10022   
         Ce3       1.0000    0.04484   0.49567   0.26576   Biso      1.000     Ce          2.100218  
         Ce4       1.0000    0.95516   0.50433   0.73424   Biso      1.000     Ce          2.100217  
         O1        1.0000    0.71800   0.91590   0.71070   Biso      1.000     O          -0.603223           
         O2        1.0000    0.04760   0.75880   0.29590   Biso      1.000     O          -0.634772           
         O3        1.0000    0.05010   0.63330   0.43360   Biso      1.000     O          -0.603367           
         O4        1.0000    0.67780   0.72050   0.50820   Biso      1.000     O          -0.544054           
         O5        1.0000    0.85650   0.66220   0.61590   Biso      1.000     O          -0.740268           
         O6        1.0000    0.84770   0.40350   0.12500   Biso      1.000     O          -0.674956           
         O7        1.0000    0.78200   0.58410   0.21070   Biso      1.000     O          -0.603222           
         O8        1.0000    0.45240   0.74120   0.79590   Biso      1.000     O          -0.634772           
         O9        1.0000    0.44990   0.86670   0.93360   Biso      1.000     O          -0.603367           
         O10       1.0000    0.82220   0.77950   0.00820   Biso      1.000     O          -0.544053           
         O11       1.0000    0.64350   0.83780   0.11590   Biso      1.000     O          -0.740268           
         O12       1.0000    0.28200   0.08410   0.28930   Biso      1.000     O          -0.603222           
         O13       1.0000    0.95240   0.24120   0.70410   Biso      1.000     O          -0.634772           
         O14       1.0000    0.94990   0.36670   0.56640   Biso      1.000     O          -0.603367           
         O15       1.0000    0.32220   0.27950   0.49180   Biso      1.000     O          -0.544053           
         O16       1.0000    0.14350   0.33780   0.38410   Biso      1.000     O          -0.740268           
         O17       1.0000    0.15230   0.59650   0.87500   Biso      1.000     O          -0.674957           
         O18       1.0000    0.21800   0.41590   0.78930   Biso      1.000     O          -0.603223           
         O19       1.0000    0.54760   0.25880   0.20410   Biso      1.000     O          -0.634772           
         O20       1.0000    0.55010   0.13330   0.06640   Biso      1.000     O          -0.603367           
         O21       1.0000    0.17780   0.22050   0.99180   Biso      1.000     O          -0.544053           
         O22       1.0000    0.35650   0.16220   0.88410   Biso      1.000     O          -0.740268           
         O23       1.0000    0.34770   0.90350   0.37500   Biso      1.000     O          -0.674956           
         O24       1.0000    0.65230   0.09650   0.62500   Biso      1.000     O          -0.674957 