
##########################################################################
#               Crystallographic Information Format file
#               Produced by PyCifRW module
#
#  This is a CIF file.  CIF has been adopted by the International
#  Union of Crystallography as the standard for data archiving and
#  transmission.
#
#  For information on this file format, follow the CIF links at
#  http://www.iucr.org
##########################################################################

data_image0

_cell_length_a                          9.8767
_cell_length_b                          17.4389
_cell_length_c                          12.0177
_cell_angle_alpha                       90
_cell_angle_beta                        97.458
_cell_angle_gamma                       90
_symmetry_space_group_name_H-M          'P 1'
_symmetry_int_tables_number             1
loop_
  _symmetry_equiv_pos_as_xyz
         'x, y, z' 
loop_
  _atom_site_label
  _atom_site_occupancy
  _atom_site_fract_x
  _atom_site_fract_y
  _atom_site_fract_z
  _atom_site_thermal_displace_type
  _atom_site_B_iso_or_equiv
  _atom_site_type_symbol
  _atom_site_charge
         C1        1.0000    0.32310   0.08230   0.18360   Biso      1.000     C          0.550798  
         C2        1.0000    0.65810   0.54960   0.99930   Biso      1.000     C          -0.185881           
         C3        1.0000    0.61640   0.62400   0.97940   Biso      1.000     C          0.129769  
         C4        1.0000    0.17690   0.58230   0.31640   Biso      1.000     C          0.5507890000000001  
         C5        1.0000    0.66820   0.62250   0.28920   Biso      1.000     C          0.569659  
         C6        1.0000    0.92250   0.60485   0.30120   Biso      1.000     C          -0.11329700000000001          
         C7        1.0000    0.55560   0.59657   0.79690   Biso      1.000     C          0.29052100000000003           
         C8        1.0000    0.05040   0.62876   0.27830   Biso      1.000     C          0.010234  
         C9        1.0000    0.80740   0.64930   0.26890   Biso      1.000     C          -0.002072           
         C10       1.0000    0.06370   0.69772   0.22240   Biso      1.000     C          -0.20718499999999998          
         C11       1.0000    0.51120   0.61812   0.67950   Biso      1.000     C          0.190165  
         C12       1.0000    0.82100   0.71985   0.21610   Biso      1.000     C          -0.211023           
         C13       1.0000    0.43710   0.67495   0.52280   Biso      1.000     C          0.395376  
         C14       1.0000    0.94890   0.74191   0.19350   Biso      1.000     C          0.178317  
         C15       1.0000    0.88070   0.76460   0.94350   Biso      1.000     C          -0.55218  
         C16       1.0000    0.38070   0.73540   0.44350   Biso      1.000     C          -0.552186           
         C17       1.0000    0.44890   0.75809   0.69350   Biso      1.000     C          0.178321  
         C18       1.0000    0.32100   0.78015   0.71610   Biso      1.000     C          -0.211024           
         C19       1.0000    0.93710   0.82505   0.02280   Biso      1.000     C          0.395395  
         C20       1.0000    0.01120   0.88188   0.17950   Biso      1.000     C          0.190182  
         C21       1.0000    0.05560   0.90343   0.29690   Biso      1.000     C          0.290537  
         C22       1.0000    0.11640   0.87600   0.47940   Biso      1.000     C          0.129807  
         C23       1.0000    0.56370   0.80228   0.72240   Biso      1.000     C          -0.207179           
         C24       1.0000    0.15810   0.95040   0.49930   Biso      1.000     C          -0.18584  
         C25       1.0000    0.30740   0.85070   0.76890   Biso      1.000     C          -0.0020989999999999997        
         C26       1.0000    0.13930   0.00110   0.41020   Biso      1.000     C          0.146144  
         C27       1.0000    0.55040   0.87124   0.77830   Biso      1.000     C          0.010209999999999999          
         C28       1.0000    0.42250   0.89515   0.80120   Biso      1.000     C          -0.11331  
         C29       1.0000    0.63930   0.49890   0.91020   Biso      1.000     C          0.14612999999999998           
         C30       1.0000    0.16820   0.87750   0.78920   Biso      1.000     C          0.569649  
         C31       1.0000    0.67690   0.91770   0.81640   Biso      1.000     C          0.550783  
         C32       1.0000    0.33180   0.37750   0.71080   Biso      1.000     C          0.569657  
         C33       1.0000    0.83180   0.12250   0.21080   Biso      1.000     C          0.56967   
         C34       1.0000    0.57750   0.10485   0.19880   Biso      1.000     C          -0.11328599999999998          
         C35       1.0000    0.86070   0.99890   0.58980   Biso      1.000     C          0.14612   
         C36       1.0000    0.44960   0.12876   0.22170   Biso      1.000     C          0.010232  
         C37       1.0000    0.69260   0.14930   0.23110   Biso      1.000     C          -0.002072           
         C38       1.0000    0.43630   0.19772   0.27760   Biso      1.000     C          -0.207154           
         C39       1.0000    0.84190   0.04960   0.50070   Biso      1.000     C          -0.185906           
         C40       1.0000    0.67900   0.21985   0.28390   Biso      1.000     C          -0.210983           
         C41       1.0000    0.88360   0.12400   0.52060   Biso      1.000     C          0.129743  
         C42       1.0000    0.55110   0.24191   0.30650   Biso      1.000     C          0.178357  
         C43       1.0000    0.61930   0.26460   0.55650   Biso      1.000     C          -0.552183           
         C44       1.0000    0.94440   0.09657   0.70310   Biso      1.000     C          0.290505  
         C45       1.0000    0.98880   0.11812   0.82050   Biso      1.000     C          0.190179  
         C46       1.0000    0.06290   0.17495   0.97720   Biso      1.000     C          0.395383  
         C47       1.0000    0.56290   0.32505   0.47720   Biso      1.000     C          0.39537   
         C48       1.0000    0.48880   0.38188   0.32050   Biso      1.000     C          0.190157  
         C49       1.0000    0.44440   0.40343   0.20310   Biso      1.000     C          0.29051   
         C50       1.0000    0.38360   0.37600   0.02060   Biso      1.000     C          0.129746  
         C51       1.0000    0.11930   0.23540   0.05650   Biso      1.000     C          -0.552184           
         C52       1.0000    0.34190   0.45040   0.00070   Biso      1.000     C          -0.185883           
         C53       1.0000    0.05110   0.25809   0.80650   Biso      1.000     C          0.178318  
         C54       1.0000    0.36070   0.50110   0.08980   Biso      1.000     C          0.146123  
         C55       1.0000    0.17900   0.28015   0.78390   Biso      1.000     C          -0.21101399999999998          
         C56       1.0000    0.93630   0.30228   0.77760   Biso      1.000     C          -0.20717399999999997          
         C57       1.0000    0.19260   0.35070   0.73110   Biso      1.000     C          -0.002085           
         C58       1.0000    0.94960   0.37124   0.72170   Biso      1.000     C          0.010218000000000001          
         C59       1.0000    0.07750   0.39515   0.69880   Biso      1.000     C          -0.11329700000000001          
         C60       1.0000    0.82310   0.41770   0.68360   Biso      1.000     C          0.550786  
         Co1       1.0000    0.54850   0.45375   0.65508   Biso      1.000     Co          0.798219  
         Co2       1.0000    0.04850   0.04625   0.15508   Biso      1.000     Co          0.798401  
         Co3       1.0000    0.95150   0.95375   0.84492   Biso      1.000     Co          0.798141  
         Co4       1.0000    0.45150   0.54625   0.34492   Biso      1.000     Co          0.798076  
         H1        1.0000    0.62380   0.65910   0.04040   Biso      1.000     H          0.095108  
         H2        1.0000    0.34990   0.21400   0.29550   Biso      1.000     H          0.143308  
         H3        1.0000    0.69840   0.53360   0.07170   Biso      1.000     H          0.141017  
         H4        1.0000    0.87620   0.15910   0.45960   Biso      1.000     H          0.095097  
         H5        1.0000    0.66550   0.44680   0.92190   Biso      1.000     H          0.108501  
         H6        1.0000    0.75610   0.25190   0.30390   Biso      1.000     H          0.14041900000000002           
         H7        1.0000    0.71880   0.26260   0.55850   Biso      1.000     H          0.184659  
         H8        1.0000    0.91380   0.55770   0.33920   Biso      1.000     H          0.141703  
         H9        1.0000    0.57990   0.21490   0.53180   Biso      1.000     H          0.177976  
         H10       1.0000    0.09660   0.22370   0.13160   Biso      1.000     H          0.20678400000000002           
         H11       1.0000    0.07990   0.28510   0.03180   Biso      1.000     H          0.178002  
         H12       1.0000    0.21880   0.23740   0.05850   Biso      1.000     H          0.184666  
         H13       1.0000    0.37620   0.34090   0.95960   Biso      1.000     H          0.095104  
         H14       1.0000    0.30160   0.46640   0.92830   Biso      1.000     H          0.141014  
         H15       1.0000    0.25610   0.24810   0.80390   Biso      1.000     H          0.140372  
         H16       1.0000    0.33450   0.55320   0.07810   Biso      1.000     H          0.10851199999999998           
         H17       1.0000    0.84990   0.28600   0.79550   Biso      1.000     H          0.143271  
         H18       1.0000    0.59660   0.27630   0.63160   Biso      1.000     H          0.206788  
         H19       1.0000    0.08620   0.44230   0.66080   Biso      1.000     H          0.141693  
         H20       1.0000    0.15010   0.71400   0.20450   Biso      1.000     H          0.143289  
         H21       1.0000    0.40340   0.72370   0.36840   Biso      1.000     H          0.20679499999999998           
         H22       1.0000    0.83450   0.94680   0.57810   Biso      1.000     H          0.10849600000000001           
         H23       1.0000    0.58620   0.05770   0.16080   Biso      1.000     H          0.141714  
         H24       1.0000    0.80160   0.03360   0.42830   Biso      1.000     H          0.141002  
         H25       1.0000    0.74390   0.75190   0.19610   Biso      1.000     H          0.14039100000000002           
         H26       1.0000    0.16550   0.05320   0.42190   Biso      1.000     H          0.10852300000000001           
         H27       1.0000    0.19840   0.96640   0.57170   Biso      1.000     H          0.141026  
         H28       1.0000    0.12380   0.84090   0.54040   Biso      1.000     H          0.09512799999999999           
         H29       1.0000    0.41380   0.94230   0.83920   Biso      1.000     H          0.14167000000000002           
         H30       1.0000    0.90340   0.77630   0.86840   Biso      1.000     H          0.20679299999999998           
         H31       1.0000    0.24390   0.74810   0.69610   Biso      1.000     H          0.140382  
         H32       1.0000    0.92010   0.71490   0.96820   Biso      1.000     H          0.177991  
         H33       1.0000    0.78120   0.76260   0.94150   Biso      1.000     H          0.184665  
         H34       1.0000    0.28120   0.73740   0.44150   Biso      1.000     H          0.184657  
         H35       1.0000    0.42010   0.78510   0.46820   Biso      1.000     H          0.177982  
         H36       1.0000    0.65010   0.78600   0.70450   Biso      1.000     H          0.143273  
         N1        1.0000    0.03530   0.18618   0.86380   Biso      1.000     N          -0.099924           
         N2        1.0000    0.03370   0.10351   0.00080   Biso      1.000     N          -0.216475           
         N3        1.0000    0.98660   0.06768   0.90090   Biso      1.000     N          -0.19326500000000002          
         N4        1.0000    0.93450   0.14925   0.62350   Biso      1.000     N          -0.30143400000000004          
         N5        1.0000    0.91520   0.02169   0.69200   Biso      1.000     N          -0.28742199999999996          
         N6        1.0000    0.53530   0.31382   0.36380   Biso      1.000     N          -0.09995  
         N7        1.0000    0.53370   0.39649   0.50080   Biso      1.000     N          -0.216427           
         N8        1.0000    0.08480   0.97831   0.30800   Biso      1.000     N          -0.287448           
         N9        1.0000    0.43450   0.35075   0.12350   Biso      1.000     N          -0.30146300000000004          
         N10       1.0000    0.96630   0.89649   0.99920   Biso      1.000     N          -0.21639  
         N11       1.0000    0.96470   0.81382   0.13620   Biso      1.000     N          -0.09991599999999999          
         N12       1.0000    0.48660   0.43232   0.40090   Biso      1.000     N          -0.193241           
         N13       1.0000    0.46470   0.68618   0.63620   Biso      1.000     N          -0.09992999999999999          
         N14       1.0000    0.46630   0.60351   0.49920   Biso      1.000     N          -0.21639499999999998          
         N15       1.0000    0.51340   0.56768   0.59910   Biso      1.000     N          -0.193273           
         N16       1.0000    0.01340   0.93232   0.09910   Biso      1.000     N          -0.193302           
         N17       1.0000    0.56550   0.64925   0.87650   Biso      1.000     N          -0.30143000000000003          
         N18       1.0000    0.06550   0.85075   0.37650   Biso      1.000     N          -0.30139  
         N19       1.0000    0.41520   0.47831   0.19200   Biso      1.000     N          -0.28742  
         N20       1.0000    0.58480   0.52169   0.80800   Biso      1.000     N          -0.287432           
         O1        1.0000    0.28430   0.60252   0.27860   Biso      1.000     O          -0.556512           
         O2        1.0000    0.17100   0.52858   0.38350   Biso      1.000     O          -0.554114           
         O3        1.0000    0.82900   0.47142   0.61650   Biso      1.000     O          -0.554092           
         O4        1.0000    0.71570   0.39748   0.72140   Biso      1.000     O          -0.556497           
         O5        1.0000    0.65610   0.55596   0.32610   Biso      1.000     O          -0.5556270000000001           
         O6        1.0000    0.34390   0.44404   0.67390   Biso      1.000     O          -0.555611           
         O7        1.0000    0.56790   0.66220   0.26490   Biso      1.000     O          -0.562327           
         O8        1.0000    0.84390   0.05596   0.17390   Biso      1.000     O          -0.555573           
         O9        1.0000    0.93210   0.16220   0.23510   Biso      1.000     O          -0.562263           
         O10       1.0000    0.67100   0.97142   0.88350   Biso      1.000     O          -0.554146           
         O11       1.0000    0.15610   0.94404   0.82610   Biso      1.000     O          -0.5556479999999999           
         O12       1.0000    0.06790   0.83780   0.76490   Biso      1.000     O          -0.562325           
         O13       1.0000    0.21570   0.10252   0.22140   Biso      1.000     O          -0.5564680000000001           
         O14       1.0000    0.32900   0.02858   0.11650   Biso      1.000     O          -0.55402  
         O15       1.0000    0.43210   0.33780   0.73510   Biso      1.000     O          -0.562317           
         O16       1.0000    0.78430   0.89748   0.77860   Biso      1.000     O          -0.5565060000000001 