
##########################################################################
#               Crystallographic Information Format file
#               Produced by PyCifRW module
#
#  This is a CIF file.  CIF has been adopted by the International
#  Union of Crystallography as the standard for data archiving and
#  transmission.
#
#  For information on this file format, follow the CIF links at
#  http://www.iucr.org
##########################################################################

data_image0

_cell_length_a                          12.6065
_cell_length_b                          10.137
_cell_length_c                          17.5701
_cell_angle_alpha                       90
_cell_angle_beta                        90
_cell_angle_gamma                       90
_symmetry_space_group_name_H-M          'P 1'
_symmetry_int_tables_number             1
loop_
  _symmetry_equiv_pos_as_xyz
         'x, y, z' 
loop_
  _atom_site_label
  _atom_site_occupancy
  _atom_site_fract_x
  _atom_site_fract_y
  _atom_site_fract_z
  _atom_site_thermal_displace_type
  _atom_site_B_iso_or_equiv
  _atom_site_type_symbol
  _atom_site_charge
         C1        1.0000    0.04400   0.57240   0.24260   Biso      1.000     C          0.152079  
         C2        1.0000    0.48550   0.38100   0.60090   Biso      1.000     C          0.159058  
         C3        1.0000    0.37550   0.57580   0.30300   Biso      1.000     C          0.096348  
         C4        1.0000    0.52480   0.26040   0.58010   Biso      1.000     C          -0.175465           
         C5        1.0000    0.83790   0.17570   0.58100   Biso      1.000     C          0.56983   
         C6        1.0000    0.47700   0.19540   0.51830   Biso      1.000     C          -0.073852           
         C7        1.0000    0.39290   0.24810   0.48050   Biso      1.000     C          -0.020037           
         C8        1.0000    0.40110   0.43540   0.56380   Biso      1.000     C          -0.173667           
         C9        1.0000    0.33790   0.17570   0.41900   Biso      1.000     C          0.569842  
         C10       1.0000    0.97700   0.19540   0.48170   Biso      1.000     C          -0.073882           
         C11       1.0000    0.02480   0.26040   0.41990   Biso      1.000     C          -0.175494           
         C12       1.0000    0.98550   0.38100   0.39910   Biso      1.000     C          0.159051  
         C13       1.0000    0.90110   0.43540   0.43620   Biso      1.000     C          -0.173682           
         C14       1.0000    0.85660   0.36920   0.49710   Biso      1.000     C          -0.092682           
         C15       1.0000    0.37550   0.92420   0.19700   Biso      1.000     C          0.096346  
         C16       1.0000    0.89290   0.24810   0.51950   Biso      1.000     C          -0.020033           
         C17       1.0000    0.45600   0.42760   0.24260   Biso      1.000     C          0.152082  
         C18       1.0000    0.35660   0.36920   0.50290   Biso      1.000     C          -0.092657           
         C19       1.0000    0.64340   0.63080   0.49710   Biso      1.000     C          -0.092669           
         C20       1.0000    0.09890   0.56460   0.56380   Biso      1.000     C          -0.173681           
         C21       1.0000    0.01450   0.61900   0.60090   Biso      1.000     C          0.159066  
         C22       1.0000    0.87550   0.57580   0.69700   Biso      1.000     C          0.09634   
         C23       1.0000    0.97520   0.73960   0.58010   Biso      1.000     C          -0.175468           
         C24       1.0000    0.02300   0.80460   0.51830   Biso      1.000     C          -0.073852           
         C25       1.0000    0.10710   0.75190   0.48050   Biso      1.000     C          -0.020042           
         C26       1.0000    0.16210   0.82430   0.41900   Biso      1.000     C          0.569853  
         C27       1.0000    0.66210   0.82430   0.58100   Biso      1.000     C          0.569833  
         C28       1.0000    0.60710   0.75190   0.51950   Biso      1.000     C          -0.020042           
         C29       1.0000    0.52300   0.80460   0.48170   Biso      1.000     C          -0.073857           
         C30       1.0000    0.47520   0.73960   0.41990   Biso      1.000     C          -0.175486           
         C31       1.0000    0.51450   0.61900   0.39910   Biso      1.000     C          0.159058  
         C32       1.0000    0.62450   0.42420   0.69700   Biso      1.000     C          0.096346  
         C33       1.0000    0.59890   0.56460   0.43620   Biso      1.000     C          -0.173666           
         C34       1.0000    0.54400   0.57240   0.75740   Biso      1.000     C          0.152081  
         C35       1.0000    0.95600   0.42760   0.75740   Biso      1.000     C          0.152079  
         C36       1.0000    0.45600   0.07240   0.25740   Biso      1.000     C          0.152083  
         C37       1.0000    0.14340   0.63080   0.50290   Biso      1.000     C          -0.092661           
         C38       1.0000    0.64340   0.86920   0.00290   Biso      1.000     C          -0.092652           
         C39       1.0000    0.85660   0.13080   0.00290   Biso      1.000     C          -0.092669           
         C40       1.0000    0.47700   0.30460   0.98170   Biso      1.000     C          -0.073832           
         C41       1.0000    0.90110   0.06460   0.06380   Biso      1.000     C          -0.173679           
         C42       1.0000    0.98550   0.11900   0.10090   Biso      1.000     C          0.15907   
         C43       1.0000    0.52480   0.23960   0.91990   Biso      1.000     C          -0.175455           
         C44       1.0000    0.02480   0.23960   0.08010   Biso      1.000     C          -0.175471           
         C45       1.0000    0.39290   0.25190   0.01950   Biso      1.000     C          -0.020016           
         C46       1.0000    0.48550   0.11900   0.89910   Biso      1.000     C          0.159081  
         C47       1.0000    0.89290   0.25190   0.98050   Biso      1.000     C          -0.020033           
         C48       1.0000    0.83790   0.32430   0.91900   Biso      1.000     C          0.56984   
         C49       1.0000    0.40110   0.06460   0.93620   Biso      1.000     C          -0.173659           
         C50       1.0000    0.35660   0.13080   0.99710   Biso      1.000     C          -0.09265  
         C51       1.0000    0.54400   0.92760   0.74260   Biso      1.000     C          0.15208   
         C52       1.0000    0.62450   0.07580   0.80300   Biso      1.000     C          0.096338  
         C53       1.0000    0.97700   0.30460   0.01830   Biso      1.000     C          -0.073847           
         C54       1.0000    0.12450   0.42420   0.30300   Biso      1.000     C          0.096335  
         C55       1.0000    0.04400   0.92760   0.25740   Biso      1.000     C          0.152076  
         C56       1.0000    0.12450   0.07580   0.19700   Biso      1.000     C          0.096333  
         C57       1.0000    0.10710   0.74810   0.01950   Biso      1.000     C          -0.020038           
         C58       1.0000    0.16210   0.67570   0.08100   Biso      1.000     C          0.569856  
         C59       1.0000    0.47520   0.76040   0.08010   Biso      1.000     C          -0.175454           
         C60       1.0000    0.02300   0.69540   0.98170   Biso      1.000     C          -0.073845           
         C61       1.0000    0.52300   0.69540   0.01830   Biso      1.000     C          -0.07384  
         C62       1.0000    0.33790   0.32430   0.08100   Biso      1.000     C          0.569845  
         C63       1.0000    0.51450   0.88100   0.10090   Biso      1.000     C          0.159079  
         C64       1.0000    0.60710   0.74810   0.98050   Biso      1.000     C          -0.02001  
         C65       1.0000    0.97520   0.76040   0.91990   Biso      1.000     C          -0.175476           
         C66       1.0000    0.01450   0.88100   0.89910   Biso      1.000     C          0.159069  
         C67       1.0000    0.09890   0.93540   0.93620   Biso      1.000     C          -0.173671           
         C68       1.0000    0.14340   0.86920   0.99710   Biso      1.000     C          -0.092666           
         C69       1.0000    0.95600   0.07240   0.74260   Biso      1.000     C          0.152076  
         C70       1.0000    0.87550   0.92420   0.80300   Biso      1.000     C          0.096325  
         C71       1.0000    0.66210   0.67570   0.91900   Biso      1.000     C          0.569826  
         C72       1.0000    0.59890   0.93540   0.06380   Biso      1.000     C          -0.17366  
         Cu1       1.0000    0.75000   0.00000   0.66528   Biso      1.000     Cu          0.770727  
         Cu2       1.0000    0.75000   0.50000   0.83472   Biso      1.000     Cu          0.770701  
         Cu3       1.0000    0.25000   0.00000   0.33472   Biso      1.000     Cu          0.770731  
         Cu4       1.0000    0.25000   0.50000   0.16528   Biso      1.000     Cu          0.770743  
         H1        1.0000    0.12610   0.48370   0.57930   Biso      1.000     H          0.128289  
         H2        1.0000    0.87390   0.51630   0.42070   Biso      1.000     H          0.12828   
         H3        1.0000    0.32550   0.86290   0.18070   Biso      1.000     H          0.123918  
         H4        1.0000    0.80060   0.40780   0.52340   Biso      1.000     H          0.109195  
         H5        1.0000    0.47110   0.13700   0.29340   Biso      1.000     H          0.107984  
         H6        1.0000    0.19940   0.59220   0.47660   Biso      1.000     H          0.109199  
         H7        1.0000    0.69940   0.90780   0.97660   Biso      1.000     H          0.109209  
         H8        1.0000    0.17450   0.36290   0.31930   Biso      1.000     H          0.123911  
         H9        1.0000    0.62610   0.01630   0.07930   Biso      1.000     H          0.1283    
         H10       1.0000    0.41860   0.72260   0.10620   Biso      1.000     H          0.129956  
         H11       1.0000    0.49630   0.61420   0.00290   Biso      1.000     H          0.118238  
         H12       1.0000    0.99630   0.61420   0.99710   Biso      1.000     H          0.11822   
         H13       1.0000    0.91860   0.72260   0.89380   Biso      1.000     H          0.129948  
         H14       1.0000    0.12610   0.01630   0.92070   Biso      1.000     H          0.12828   
         H15       1.0000    0.08140   0.22260   0.39380   Biso      1.000     H          0.129944  
         H16       1.0000    0.19940   0.90780   0.02340   Biso      1.000     H          0.109192  
         H17       1.0000    0.17450   0.13710   0.18070   Biso      1.000     H          0.123907  
         H18       1.0000    0.82550   0.86290   0.81930   Biso      1.000     H          0.123907  
         H19       1.0000    0.02890   0.86300   0.29340   Biso      1.000     H          0.107972  
         H20       1.0000    0.80060   0.09220   0.97660   Biso      1.000     H          0.10919   
         H21       1.0000    0.87390   0.98370   0.07930   Biso      1.000     H          0.128281  
         H22       1.0000    0.50370   0.38580   0.99710   Biso      1.000     H          0.118236  
         H23       1.0000    0.08140   0.27740   0.10620   Biso      1.000     H          0.129945  
         H24       1.0000    0.58140   0.27740   0.89380   Biso      1.000     H          0.129956  
         H25       1.0000    0.00370   0.38580   0.00290   Biso      1.000     H          0.11822   
         H26       1.0000    0.37390   0.98370   0.92070   Biso      1.000     H          0.128297  
         H27       1.0000    0.30060   0.09220   0.02340   Biso      1.000     H          0.109207  
         H28       1.0000    0.52890   0.86300   0.70660   Biso      1.000     H          0.107976  
         H29       1.0000    0.67450   0.13710   0.81930   Biso      1.000     H          0.123915  
         H30       1.0000    0.97110   0.13700   0.70660   Biso      1.000     H          0.107966  
         H31       1.0000    0.00370   0.11420   0.49710   Biso      1.000     H          0.118213  
         H32       1.0000    0.02890   0.63700   0.20660   Biso      1.000     H          0.10797   
         H33       1.0000    0.41860   0.77740   0.39380   Biso      1.000     H          0.129945  
         H34       1.0000    0.67450   0.36290   0.68070   Biso      1.000     H          0.123915  
         H35       1.0000    0.52890   0.63700   0.79340   Biso      1.000     H          0.107979  
         H36       1.0000    0.62610   0.48370   0.42070   Biso      1.000     H          0.128285  
         H37       1.0000    0.30060   0.40780   0.47660   Biso      1.000     H          0.109205  
         H38       1.0000    0.69940   0.59220   0.52340   Biso      1.000     H          0.109203  
         H39       1.0000    0.49630   0.88580   0.49710   Biso      1.000     H          0.118214  
         H40       1.0000    0.47110   0.36300   0.20660   Biso      1.000     H          0.107983  
         H41       1.0000    0.58140   0.22260   0.60620   Biso      1.000     H          0.129949  
         H42       1.0000    0.32550   0.63710   0.31930   Biso      1.000     H          0.123915  
         H43       1.0000    0.37390   0.51630   0.57930   Biso      1.000     H          0.128291  
         H44       1.0000    0.50370   0.11420   0.50290   Biso      1.000     H          0.118216  
         H45       1.0000    0.99630   0.88580   0.50290   Biso      1.000     H          0.118216  
         H46       1.0000    0.97110   0.36300   0.79340   Biso      1.000     H          0.10797   
         H47       1.0000    0.91860   0.77740   0.60620   Biso      1.000     H          0.129948  
         H48       1.0000    0.82550   0.63710   0.68070   Biso      1.000     H          0.123911  
         N1        1.0000    0.96740   0.55310   0.66350   Biso      1.000     N          0.150119  
         N2        1.0000    0.53260   0.05310   0.83650   Biso      1.000     N          0.150111  
         N3        1.0000    0.03260   0.05310   0.16350   Biso      1.000     N          0.150115  
         N4        1.0000    0.86490   0.49790   0.75760   Biso      1.000     N          -0.318761           
         N5        1.0000    0.47940   0.95800   0.79750   Biso      1.000     N          -0.259506           
         N6        1.0000    0.63510   0.99790   0.74240   Biso      1.000     N          -0.318749           
         N7        1.0000    0.02060   0.45800   0.70250   Biso      1.000     N          -0.259481           
         N8        1.0000    0.36490   0.49790   0.24240   Biso      1.000     N          -0.318772           
         N9        1.0000    0.52060   0.45800   0.29750   Biso      1.000     N          -0.259479           
         N10       1.0000    0.13510   0.99790   0.25760   Biso      1.000     N          -0.318757           
         N11       1.0000    0.46740   0.55310   0.33650   Biso      1.000     N          0.150128  
         N12       1.0000    0.97940   0.95800   0.20250   Biso      1.000     N          -0.259507           
         N13       1.0000    0.63510   0.50210   0.75760   Biso      1.000     N          -0.318757           
         N14       1.0000    0.47940   0.54200   0.70250   Biso      1.000     N          -0.259483           
         N15       1.0000    0.46740   0.94690   0.16350   Biso      1.000     N          0.150113  
         N16       1.0000    0.52060   0.04200   0.20250   Biso      1.000     N          -0.259482           
         N17       1.0000    0.13510   0.50210   0.24240   Biso      1.000     N          -0.318774           
         N18       1.0000    0.53260   0.44690   0.66350   Biso      1.000     N          0.150128  
         N19       1.0000    0.36490   0.00210   0.25760   Biso      1.000     N          -0.318743           
         N20       1.0000    0.86490   0.00210   0.74240   Biso      1.000     N          -0.318763           
         N21       1.0000    0.02060   0.04200   0.79750   Biso      1.000     N          -0.259539           
         N22       1.0000    0.96740   0.94690   0.83650   Biso      1.000     N          0.150122  
         N23       1.0000    0.97940   0.54200   0.29750   Biso      1.000     N          -0.2595   
         N24       1.0000    0.03260   0.44690   0.33650   Biso      1.000     N          0.150132  
         O1        1.0000    0.14680   0.94840   0.41402   Biso      1.000     O          -0.52183  
         O2        1.0000    0.77700   0.26610   0.87470   Biso      1.000     O          -0.594568           
         O3        1.0000    0.27700   0.23390   0.37470   Biso      1.000     O          -0.59456  
         O4        1.0000    0.35320   0.05160   0.41402   Biso      1.000     O          -0.521834           
         O5        1.0000    0.77700   0.23390   0.62530   Biso      1.000     O          -0.594586           
         O6        1.0000    0.85320   0.05160   0.58598   Biso      1.000     O          -0.52183  
         O7        1.0000    0.72300   0.76610   0.62530   Biso      1.000     O          -0.594575           
         O8        1.0000    0.72300   0.73390   0.87470   Biso      1.000     O          -0.594535           
         O9        1.0000    0.14680   0.55160   0.08598   Biso      1.000     O          -0.521864           
         O10       1.0000    0.22300   0.73390   0.12530   Biso      1.000     O          -0.594585           
         O11       1.0000    0.27700   0.26610   0.12530   Biso      1.000     O          -0.594552           
         O12       1.0000    0.35320   0.44840   0.08598   Biso      1.000     O          -0.521867           
         O13       1.0000    0.22300   0.76610   0.37470   Biso      1.000     O          -0.594573           
         O14       1.0000    0.64680   0.55160   0.91402   Biso      1.000     O          -0.521852           
         O15       1.0000    0.64680   0.94840   0.58598   Biso      1.000     O          -0.521833           
         O16       1.0000    0.85320   0.44840   0.91402   Biso      1.000     O          -0.521847 