
##########################################################################
#               Crystallographic Information Format file
#               Produced by PyCifRW module
#
#  This is a CIF file.  CIF has been adopted by the International
#  Union of Crystallography as the standard for data archiving and
#  transmission.
#
#  For information on this file format, follow the CIF links at
#  http://www.iucr.org
##########################################################################

data_image0

_cell_length_a                          11.9474
_cell_length_b                          11.9474
_cell_length_c                          16.246
_cell_angle_alpha                       72.2653
_cell_angle_beta                        72.2653
_cell_angle_gamma                       77.7997
_symmetry_space_group_name_H-M          'P 1'
_symmetry_int_tables_number             1
loop_
  _symmetry_equiv_pos_as_xyz
         'x, y, z' 
loop_
  _atom_site_label
  _atom_site_occupancy
  _atom_site_fract_x
  _atom_site_fract_y
  _atom_site_fract_z
  _atom_site_thermal_displace_type
  _atom_site_B_iso_or_equiv
  _atom_site_type_symbol
  _atom_site_charge
         C1        1.0000    0.62600   0.34700   0.04250   Biso      1.000     C          -0.201776           
         C2        1.0000    0.42290   0.28550   0.10650   Biso      1.000     C          -0.102835           
         C3        1.0000    0.49690   0.44290   0.13980   Biso      1.000     C          -0.208077           
         C4        1.0000    0.57130   0.97290   0.36500   Biso      1.000     C          0.615574  
         C5        1.0000    0.57260   0.97980   0.09970   Biso      1.000     C          -0.24168  
         C6        1.0000    0.51630   0.35910   0.09650   Biso      1.000     C          0.175546  
         C7        1.0000    0.68610   0.77610   0.11460   Biso      1.000     C          0.558509  
         C8        1.0000    0.52120   0.07640   0.21860   Biso      1.000     C          -0.235029           
         C9        1.0000    0.62330   0.87770   0.15270   Biso      1.000     C          -0.012159           
         C10       1.0000    0.50310   0.55710   0.86020   Biso      1.000     C          -0.20806799999999998          
         C11       1.0000    0.70750   0.41850   0.03290   Biso      1.000     C          0.097166  
         C12       1.0000    0.51970   0.07950   0.13160   Biso      1.000     C          0.265396  
         C13       1.0000    0.62000   0.87560   0.23970   Biso      1.000     C          -0.176674           
         C14       1.0000    0.48990   0.41490   0.37240   Biso      1.000     C          0.093888  
         C15       1.0000    0.58150   0.29250   0.46710   Biso      1.000     C          0.09715900000000001           
         C16       1.0000    0.71450   0.57710   0.39350   Biso      1.000     C          -0.10283199999999999          
         C17       1.0000    0.55710   0.50310   0.36020   Biso      1.000     C          -0.208069           
         C18       1.0000    0.02710   0.42870   0.13500   Biso      1.000     C          0.615577  
         C19       1.0000    0.02020   0.42740   0.40030   Biso      1.000     C          -0.24167600000000003          
         C20       1.0000    0.64090   0.48370   0.40350   Biso      1.000     C          0.175526  
         C21       1.0000    0.22390   0.31390   0.38540   Biso      1.000     C          0.558512  
         C22       1.0000    0.56890   0.97450   0.27270   Biso      1.000     C          -0.017308           
         C23       1.0000    0.92360   0.47880   0.28140   Biso      1.000     C          -0.235021           
         C24       1.0000    0.58510   0.51010   0.12760   Biso      1.000     C          0.09389   
         C25       1.0000    0.97450   0.56890   0.77270   Biso      1.000     C          -0.017299000000000002         
         C26       1.0000    0.48370   0.64090   0.90350   Biso      1.000     C          0.175531  
         C27       1.0000    0.31390   0.22390   0.88540   Biso      1.000     C          0.558516  
         C28       1.0000    0.47880   0.92360   0.78140   Biso      1.000     C          -0.23502199999999998          
         C29       1.0000    0.37670   0.12230   0.84730   Biso      1.000     C          -0.01215  
         C30       1.0000    0.37400   0.65300   0.95750   Biso      1.000     C          -0.201757           
         C31       1.0000    0.48030   0.92050   0.86840   Biso      1.000     C          0.265393  
         C32       1.0000    0.43110   0.02550   0.72730   Biso      1.000     C          -0.0173   
         C33       1.0000    0.38000   0.12440   0.76030   Biso      1.000     C          -0.176672           
         C34       1.0000    0.51010   0.58510   0.62760   Biso      1.000     C          0.09389   
         C35       1.0000    0.87560   0.62000   0.73970   Biso      1.000     C          -0.176676           
         C36       1.0000    0.41850   0.70750   0.53290   Biso      1.000     C          0.097164  
         C37       1.0000    0.44290   0.49690   0.63980   Biso      1.000     C          -0.208071           
         C38       1.0000    0.97290   0.57130   0.86500   Biso      1.000     C          0.615572  
         C39       1.0000    0.97980   0.57260   0.59970   Biso      1.000     C          -0.24167600000000003          
         C40       1.0000    0.35910   0.51630   0.59650   Biso      1.000     C          0.175529  
         C41       1.0000    0.77610   0.68610   0.61460   Biso      1.000     C          0.558513  
         C42       1.0000    0.07640   0.52120   0.71860   Biso      1.000     C          -0.23502399999999998          
         C43       1.0000    0.87770   0.62330   0.65270   Biso      1.000     C          -0.012154           
         C44       1.0000    0.34700   0.62600   0.54250   Biso      1.000     C          -0.201752           
         C45       1.0000    0.07950   0.51970   0.63160   Biso      1.000     C          0.265396  
         C46       1.0000    0.28550   0.42290   0.60650   Biso      1.000     C          -0.10283199999999999          
         C47       1.0000    0.12230   0.37670   0.34730   Biso      1.000     C          -0.012157           
         C48       1.0000    0.65300   0.37400   0.45750   Biso      1.000     C          -0.201748           
         C49       1.0000    0.92050   0.48030   0.36840   Biso      1.000     C          0.265398  
         C50       1.0000    0.41490   0.48990   0.87240   Biso      1.000     C          0.09389199999999999           
         C51       1.0000    0.29250   0.58150   0.96710   Biso      1.000     C          0.09717200000000001           
         C52       1.0000    0.57710   0.71450   0.89350   Biso      1.000     C          -0.10283199999999999          
         C53       1.0000    0.42740   0.02020   0.90030   Biso      1.000     C          -0.241671           
         C54       1.0000    0.42870   0.02710   0.63500   Biso      1.000     C          0.615575  
         C55       1.0000    0.02550   0.43110   0.22730   Biso      1.000     C          -0.017301           
         C56       1.0000    0.12440   0.38000   0.26030   Biso      1.000     C          -0.17667  
         H1        1.0000    0.62110   0.73550   0.83120   Biso      1.000     H          0.12288800000000001           
         H2        1.0000    0.49000   0.14320   0.24020   Biso      1.000     H          0.128354  
         H3        1.0000    0.64690   0.28910   0.01110   Biso      1.000     H          0.122994  
         H4        1.0000    0.46980   0.17680   0.02530   Biso      1.000     H          0.281065  
         H5        1.0000    0.65210   0.80790   0.27590   Biso      1.000     H          0.11592899999999999           
         H6        1.0000    0.43400   0.43220   0.33950   Biso      1.000     H          0.076919  
         H7        1.0000    0.59280   0.21840   0.50620   Biso      1.000     H          0.082807  
         H8        1.0000    0.66750   0.63230   0.42800   Biso      1.000     H          0.121228  
         H9        1.0000    0.54350   0.57690   0.32140   Biso      1.000     H          0.126834  
         H10       1.0000    0.57410   0.98090   0.04190   Biso      1.000     H          0.128277  
         H11       1.0000    0.01910   0.42590   0.45810   Biso      1.000     H          0.128282  
         H12       1.0000    0.85680   0.51000   0.25980   Biso      1.000     H          0.128356  
         H13       1.0000    0.71090   0.35310   0.48890   Biso      1.000     H          0.12298599999999998           
         H14       1.0000    0.82320   0.53020   0.47470   Biso      1.000     H          0.281066  
         H15       1.0000    0.19210   0.34790   0.22410   Biso      1.000     H          0.115933  
         H16       1.0000    0.43220   0.43400   0.83950   Biso      1.000     H          0.076923  
         H17       1.0000    0.73550   0.62110   0.33120   Biso      1.000     H          0.122886  
         H18       1.0000    0.42310   0.45650   0.17860   Biso      1.000     H          0.12683699999999998           
         H19       1.0000    0.37890   0.26450   0.16880   Biso      1.000     H          0.12288699999999998           
         H20       1.0000    0.36770   0.33250   0.07200   Biso      1.000     H          0.121226  
         H21       1.0000    0.57690   0.54350   0.82140   Biso      1.000     H          0.12684   
         H22       1.0000    0.42590   0.01910   0.95810   Biso      1.000     H          0.12829400000000002           
         H23       1.0000    0.51000   0.85680   0.75980   Biso      1.000     H          0.128358  
         H24       1.0000    0.35310   0.71090   0.98890   Biso      1.000     H          0.12301400000000001           
         H25       1.0000    0.53020   0.82320   0.97470   Biso      1.000     H          0.281068  
         H26       1.0000    0.34790   0.19210   0.72410   Biso      1.000     H          0.115934  
         H27       1.0000    0.56600   0.56780   0.66050   Biso      1.000     H          0.07692   
         H28       1.0000    0.40720   0.78160   0.49380   Biso      1.000     H          0.082811  
         H29       1.0000    0.63230   0.66750   0.92800   Biso      1.000     H          0.12122999999999999           
         H30       1.0000    0.33250   0.36770   0.57200   Biso      1.000     H          0.12122999999999999           
         H31       1.0000    0.45650   0.42310   0.67860   Biso      1.000     H          0.126838  
         H32       1.0000    0.98090   0.57410   0.54190   Biso      1.000     H          0.12829000000000002           
         H33       1.0000    0.14320   0.49000   0.74020   Biso      1.000     H          0.128356  
         H34       1.0000    0.28910   0.64690   0.51110   Biso      1.000     H          0.123004  
         H35       1.0000    0.17680   0.46980   0.52530   Biso      1.000     H          0.281069  
         H36       1.0000    0.80790   0.65210   0.77590   Biso      1.000     H          0.115932  
         H37       1.0000    0.21840   0.59280   0.00620   Biso      1.000     H          0.082814  
         H38       1.0000    0.78160   0.40720   0.99380   Biso      1.000     H          0.08280900000000001           
         H39       1.0000    0.26450   0.37890   0.66880   Biso      1.000     H          0.12288800000000001           
         H40       1.0000    0.56780   0.56600   0.16050   Biso      1.000     H          0.076917  
         Mn1       1.0000    0.83314   0.61304   0.04752   Biso      1.000     Mn          0.930135  
         Mn2       1.0000    0.61304   0.83314   0.54752   Biso      1.000     Mn          0.930149  
         Mn3       1.0000    0.16686   0.38696   0.95248   Biso      1.000     Mn          0.9301969999999999  
         Mn4       1.0000    0.38696   0.16686   0.45248   Biso      1.000     Mn          0.93015   
         N1        1.0000    0.31050   0.49970   0.92610   Biso      1.000     N          -0.22079200000000002          
         N2        1.0000    0.52880   0.82120   0.92260   Biso      1.000     N          -0.365668           
         N3        1.0000    0.17880   0.47120   0.57740   Biso      1.000     N          -0.365672           
         N4        1.0000    0.50030   0.68950   0.57390   Biso      1.000     N          -0.22078899999999999          
         N5        1.0000    0.47120   0.17880   0.07740   Biso      1.000     N          -0.365673           
         N6        1.0000    0.49970   0.31050   0.42610   Biso      1.000     N          -0.220791           
         N7        1.0000    0.82120   0.52880   0.42260   Biso      1.000     N          -0.36567  
         N8        1.0000    0.68950   0.50030   0.07390   Biso      1.000     N          -0.22078899999999999          
         O1        1.0000    0.78080   0.69440   0.53470   Biso      1.000     O          -0.55818  
         O2        1.0000    0.26530   0.31270   0.83630   Biso      1.000     O          -0.5669029999999999           
         O3        1.0000    0.30560   0.21920   0.96530   Biso      1.000     O          -0.55818  
         O4        1.0000    0.06740   0.53600   0.88910   Biso      1.000     O          -0.590322           
         O5        1.0000    0.87710   0.61070   0.91190   Biso      1.000     O          -0.546193           
         O6        1.0000    0.68730   0.73470   0.66370   Biso      1.000     O          -0.566902           
         O7        1.0000    0.53600   0.06740   0.38910   Biso      1.000     O          -0.5903149999999999           
         O8        1.0000    0.12290   0.38930   0.08810   Biso      1.000     O          -0.546203           
         O9        1.0000    0.73470   0.68730   0.16370   Biso      1.000     O          -0.566905           
         O10       1.0000    0.69440   0.78080   0.03470   Biso      1.000     O          -0.558189           
         O11       1.0000    0.93260   0.46400   0.11090   Biso      1.000     O          -0.5903149999999999           
         O12       1.0000    0.38930   0.12290   0.58810   Biso      1.000     O          -0.546192           
         O13       1.0000    0.31270   0.26530   0.33630   Biso      1.000     O          -0.566897           
         O14       1.0000    0.21920   0.30560   0.46530   Biso      1.000     O          -0.55818  
         O15       1.0000    0.61070   0.87710   0.41190   Biso      1.000     O          -0.546196           
         O16       1.0000    0.46400   0.93260   0.61090   Biso      1.000     O          -0.590314 