
##########################################################################
#               Crystallographic Information Format file
#               Produced by PyCifRW module
#
#  This is a CIF file.  CIF has been adopted by the International
#  Union of Crystallography as the standard for data archiving and
#  transmission.
#
#  For information on this file format, follow the CIF links at
#  http://www.iucr.org
##########################################################################

data_image0

_cell_length_a                          15.229
_cell_length_b                          15.229
_cell_length_c                          15.852
_cell_angle_alpha                       90
_cell_angle_beta                        90
_cell_angle_gamma                       120
_symmetry_space_group_name_H-M          'P 1'
_symmetry_int_tables_number             1
loop_
  _symmetry_equiv_pos_as_xyz
         'x, y, z' 
loop_
  _atom_site_label
  _atom_site_occupancy
  _atom_site_fract_x
  _atom_site_fract_y
  _atom_site_fract_z
  _atom_site_thermal_displace_type
  _atom_site_B_iso_or_equiv
  _atom_site_type_symbol
  _atom_site_charge
         C1        1.0000    0.35320   0.49510   0.14090   Biso      1.000     C          0.5931890000000001  
         C2        1.0000    0.78510   0.67430   0.80490   Biso      1.000     C          -0.133211           
         C3        1.0000    0.73370   0.57120   0.80290   Biso      1.000     C          0.146041  
         C4        1.0000    0.64680   0.50490   0.85910   Biso      1.000     C          0.5931890000000001  
         C5        1.0000    0.32570   0.11080   0.80490   Biso      1.000     C          -0.133211           
         C6        1.0000    0.42880   0.16250   0.80290   Biso      1.000     C          0.14605   
         C7        1.0000    0.49510   0.14190   0.85910   Biso      1.000     C          0.593194  
         C8        1.0000    0.11080   0.78510   0.80490   Biso      1.000     C          -0.133222           
         C9        1.0000    0.16250   0.73370   0.80290   Biso      1.000     C          0.146033  
         C10       1.0000    0.14190   0.64680   0.85910   Biso      1.000     C          0.593197  
         C11       1.0000    0.21490   0.32570   0.80490   Biso      1.000     C          -0.133211           
         C12       1.0000    0.26630   0.42880   0.80290   Biso      1.000     C          0.14604   
         C13       1.0000    0.35320   0.49510   0.85910   Biso      1.000     C          0.5931890000000001  
         C14       1.0000    0.67430   0.88920   0.80490   Biso      1.000     C          -0.133211           
         C15       1.0000    0.57120   0.83750   0.80290   Biso      1.000     C          0.14605   
         C16       1.0000    0.50490   0.85810   0.85910   Biso      1.000     C          0.593195  
         C17       1.0000    0.32570   0.11080   0.19510   Biso      1.000     C          -0.133208           
         C18       1.0000    0.64680   0.50490   0.14090   Biso      1.000     C          0.5931890000000001  
         C19       1.0000    0.85810   0.35320   0.85910   Biso      1.000     C          0.593197  
         C20       1.0000    0.73370   0.57120   0.19710   Biso      1.000     C          0.146043  
         C21       1.0000    0.83750   0.26630   0.80290   Biso      1.000     C          0.146033  
         C22       1.0000    0.64680   0.14190   0.64090   Biso      1.000     C          0.5931850000000001  
         C23       1.0000    0.67430   0.78510   0.69510   Biso      1.000     C          -0.133214           
         C24       1.0000    0.57120   0.73370   0.69710   Biso      1.000     C          0.146041  
         C25       1.0000    0.50490   0.64680   0.64090   Biso      1.000     C          0.593194  
         C26       1.0000    0.11080   0.32570   0.69510   Biso      1.000     C          -0.133211           
         C27       1.0000    0.16250   0.42880   0.69710   Biso      1.000     C          0.146041  
         C28       1.0000    0.14190   0.49510   0.64090   Biso      1.000     C          0.593188  
         C29       1.0000    0.21490   0.88920   0.69510   Biso      1.000     C          -0.133212           
         C30       1.0000    0.26630   0.83750   0.69710   Biso      1.000     C          0.14605   
         C31       1.0000    0.35320   0.85810   0.64090   Biso      1.000     C          0.593186  
         C32       1.0000    0.32570   0.21490   0.69510   Biso      1.000     C          -0.133214           
         C33       1.0000    0.42880   0.26630   0.69710   Biso      1.000     C          0.146041  
         C34       1.0000    0.49510   0.35320   0.64090   Biso      1.000     C          0.5931930000000001  
         C35       1.0000    0.88920   0.67430   0.69510   Biso      1.000     C          -0.133209           
         C36       1.0000    0.83750   0.57120   0.69710   Biso      1.000     C          0.146041  
         C37       1.0000    0.85810   0.50490   0.64090   Biso      1.000     C          0.593188  
         C38       1.0000    0.78510   0.11080   0.69510   Biso      1.000     C          -0.133213           
         C39       1.0000    0.73370   0.16250   0.69710   Biso      1.000     C          0.146051  
         C40       1.0000    0.88920   0.21490   0.80490   Biso      1.000     C          -0.133221           
         C41       1.0000    0.78510   0.67430   0.19510   Biso      1.000     C          -0.13321  
         C42       1.0000    0.85810   0.35320   0.14090   Biso      1.000     C          0.593197  
         C43       1.0000    0.83750   0.26630   0.19710   Biso      1.000     C          0.146035  
         C44       1.0000    0.83750   0.57120   0.30290   Biso      1.000     C          0.146043  
         C45       1.0000    0.88920   0.67430   0.30490   Biso      1.000     C          -0.133209           
         C46       1.0000    0.49510   0.35320   0.35910   Biso      1.000     C          0.593194  
         C47       1.0000    0.42880   0.26630   0.30290   Biso      1.000     C          0.146044  
         C48       1.0000    0.32570   0.21490   0.30490   Biso      1.000     C          -0.133212           
         C49       1.0000    0.72730   0.86365   0.75000   Biso      1.000     C          -0.046165           
         C50       1.0000    0.13635   0.27270   0.75000   Biso      1.000     C          -0.046156           
         C51       1.0000    0.13635   0.86365   0.75000   Biso      1.000     C          -0.046169           
         C52       1.0000    0.27270   0.13635   0.75000   Biso      1.000     C          -0.046164           
         C53       1.0000    0.86365   0.72730   0.75000   Biso      1.000     C          -0.046156           
         C54       1.0000    0.86365   0.13635   0.75000   Biso      1.000     C          -0.046169999999999996         
         C55       1.0000    0.27270   0.13635   0.25000   Biso      1.000     C          -0.046167           
         C56       1.0000    0.86365   0.72730   0.25000   Biso      1.000     C          -0.046159           
         C57       1.0000    0.86365   0.13635   0.25000   Biso      1.000     C          -0.046189           
         C58       1.0000    0.72730   0.86365   0.25000   Biso      1.000     C          -0.046183999999999996         
         C59       1.0000    0.13635   0.27270   0.25000   Biso      1.000     C          -0.046176           
         C60       1.0000    0.13635   0.86365   0.25000   Biso      1.000     C          -0.046189           
         C61       1.0000    0.85810   0.50490   0.35910   Biso      1.000     C          0.593188  
         C62       1.0000    0.78510   0.11080   0.30490   Biso      1.000     C          -0.133202           
         C63       1.0000    0.73370   0.16250   0.30290   Biso      1.000     C          0.146052  
         C64       1.0000    0.64680   0.14190   0.35910   Biso      1.000     C          0.593186  
         C65       1.0000    0.88920   0.21490   0.19510   Biso      1.000     C          -0.133211           
         C66       1.0000    0.50490   0.85810   0.14090   Biso      1.000     C          0.593195  
         C67       1.0000    0.57120   0.83750   0.19710   Biso      1.000     C          0.146051  
         C68       1.0000    0.67430   0.88920   0.19510   Biso      1.000     C          -0.133202           
         C69       1.0000    0.26630   0.42880   0.19710   Biso      1.000     C          0.146042  
         C70       1.0000    0.21490   0.32570   0.19510   Biso      1.000     C          -0.13320099999999999          
         C71       1.0000    0.14190   0.64680   0.14090   Biso      1.000     C          0.593197  
         C72       1.0000    0.16250   0.73370   0.19710   Biso      1.000     C          0.146035  
         C73       1.0000    0.49510   0.14190   0.14090   Biso      1.000     C          0.593195  
         C74       1.0000    0.11080   0.78510   0.19510   Biso      1.000     C          -0.13321  
         C75       1.0000    0.26630   0.83750   0.30290   Biso      1.000     C          0.146052  
         C76       1.0000    0.21490   0.88920   0.30490   Biso      1.000     C          -0.13320099999999999          
         C77       1.0000    0.14190   0.49510   0.35910   Biso      1.000     C          0.5931890000000001  
         C78       1.0000    0.16250   0.42880   0.30290   Biso      1.000     C          0.146042  
         C79       1.0000    0.11080   0.32570   0.30490   Biso      1.000     C          -0.1332   
         C80       1.0000    0.50490   0.64680   0.35910   Biso      1.000     C          0.5931930000000001  
         C81       1.0000    0.57120   0.73370   0.30290   Biso      1.000     C          0.146042  
         C82       1.0000    0.67430   0.78510   0.30490   Biso      1.000     C          -0.133204           
         C83       1.0000    0.35320   0.85810   0.35910   Biso      1.000     C          0.593186  
         C84       1.0000    0.42880   0.16250   0.19710   Biso      1.000     C          0.146052  
         Er1       1.0000    0.33333   0.66666   0.75000   Biso      1.000     Er          1.840801  
         Er2       1.0000    0.66667   0.33334   0.75000   Biso      1.000     Er          1.840803  
         Er3       1.0000    0.66667   0.33334   0.25000   Biso      1.000     Er          1.840803  
         Er4       1.0000    0.33333   0.66666   0.25000   Biso      1.000     Er          1.840801  
         H1        1.0000    0.10110   0.20220   0.25000   Biso      1.000     H          0.10111   
         H2        1.0000    0.76690   0.70860   0.15670   Biso      1.000     H          0.12434100000000001           
         H3        1.0000    0.29140   0.05830   0.15670   Biso      1.000     H          0.124333  
         H4        1.0000    0.10110   0.89890   0.25000   Biso      1.000     H          0.101103  
         H5        1.0000    0.05830   0.29140   0.65670   Biso      1.000     H          0.12433499999999999           
         H6        1.0000    0.23310   0.94170   0.65670   Biso      1.000     H          0.124323  
         H7        1.0000    0.29140   0.23310   0.65670   Biso      1.000     H          0.124326  
         H8        1.0000    0.94170   0.70860   0.65670   Biso      1.000     H          0.12433699999999999           
         H9        1.0000    0.94170   0.23310   0.84330   Biso      1.000     H          0.124333  
         H10       1.0000    0.94170   0.23310   0.15670   Biso      1.000     H          0.124338  
         H11       1.0000    0.76690   0.70860   0.84330   Biso      1.000     H          0.12433599999999999           
         H12       1.0000    0.29140   0.05830   0.84330   Biso      1.000     H          0.124326  
         H13       1.0000    0.05830   0.76690   0.84330   Biso      1.000     H          0.124326  
         H14       1.0000    0.23310   0.29140   0.84330   Biso      1.000     H          0.12433399999999999           
         H15       1.0000    0.70860   0.94170   0.84330   Biso      1.000     H          0.124332  
         H16       1.0000    0.76690   0.05830   0.65670   Biso      1.000     H          0.12433   
         H17       1.0000    0.70860   0.94170   0.15670   Biso      1.000     H          0.12433599999999999           
         H18       1.0000    0.70860   0.76690   0.65670   Biso      1.000     H          0.124331  
         H19       1.0000    0.05830   0.76690   0.15670   Biso      1.000     H          0.124331  
         H20       1.0000    0.79780   0.89890   0.25000   Biso      1.000     H          0.101109  
         H21       1.0000    0.89890   0.10110   0.25000   Biso      1.000     H          0.101105  
         H22       1.0000    0.89890   0.79780   0.25000   Biso      1.000     H          0.101108  
         H23       1.0000    0.23310   0.29140   0.15670   Biso      1.000     H          0.12434   
         H24       1.0000    0.89890   0.10110   0.75000   Biso      1.000     H          0.101099  
         H25       1.0000    0.89890   0.79780   0.75000   Biso      1.000     H          0.101104  
         H26       1.0000    0.20220   0.10110   0.75000   Biso      1.000     H          0.101101  
         H27       1.0000    0.10110   0.89890   0.75000   Biso      1.000     H          0.101096  
         H28       1.0000    0.20220   0.10110   0.25000   Biso      1.000     H          0.101107  
         H29       1.0000    0.10110   0.20220   0.75000   Biso      1.000     H          0.101101  
         H30       1.0000    0.79780   0.89890   0.75000   Biso      1.000     H          0.101103  
         H31       1.0000    0.29140   0.23310   0.34330   Biso      1.000     H          0.124333  
         H32       1.0000    0.94170   0.70860   0.34330   Biso      1.000     H          0.12434200000000001           
         H33       1.0000    0.76690   0.05830   0.34330   Biso      1.000     H          0.12433499999999999           
         H34       1.0000    0.23310   0.94170   0.34330   Biso      1.000     H          0.124328  
         H35       1.0000    0.05830   0.29140   0.34330   Biso      1.000     H          0.12434100000000001           
         H36       1.0000    0.70860   0.76690   0.34330   Biso      1.000     H          0.12433499999999999           
         Mn1       1.0000    0.50000   0.00000   0.00000   Biso      1.000     Mn          1.1585530000000002  
         Mn2       1.0000    0.50000   0.50000   0.00000   Biso      1.000     Mn          1.158551  
         Mn3       1.0000    0.00000   0.50000   0.00000   Biso      1.000     Mn          1.158543  
         Mn4       1.0000    0.50000   0.00000   0.50000   Biso      1.000     Mn          1.1584459999999999  
         Mn5       1.0000    0.00000   0.50000   0.50000   Biso      1.000     Mn          1.158571  
         Mn6       1.0000    0.50000   0.50000   0.50000   Biso      1.000     Mn          1.1585450000000002  
         N1        1.0000    0.24050   0.48100   0.25000   Biso      1.000     N          -0.34468699999999997          
         N2        1.0000    0.51900   0.75950   0.25000   Biso      1.000     N          -0.344675           
         N3        1.0000    0.75950   0.24050   0.25000   Biso      1.000     N          -0.344683           
         N4        1.0000    0.24050   0.75950   0.25000   Biso      1.000     N          -0.34468499999999996          
         N5        1.0000    0.48100   0.24050   0.25000   Biso      1.000     N          -0.34467600000000004          
         N6        1.0000    0.75950   0.51900   0.25000   Biso      1.000     N          -0.344688           
         N7        1.0000    0.75950   0.51900   0.75000   Biso      1.000     N          -0.34468699999999997          
         N8        1.0000    0.48100   0.24050   0.75000   Biso      1.000     N          -0.344677           
         N9        1.0000    0.24050   0.75950   0.75000   Biso      1.000     N          -0.34468499999999996          
         N10       1.0000    0.24050   0.48100   0.75000   Biso      1.000     N          -0.34468699999999997          
         N11       1.0000    0.51900   0.75950   0.75000   Biso      1.000     N          -0.344675           
         N12       1.0000    0.75950   0.24050   0.75000   Biso      1.000     N          -0.344683           
         O1        1.0000    0.58920   0.20130   0.14533   Biso      1.000     O          -0.603536           
         O2        1.0000    0.61520   0.54930   0.09320   Biso      1.000     O          -0.578385           
         O3        1.0000    0.61210   0.41080   0.14533   Biso      1.000     O          -0.6035159999999999           
         O4        1.0000    0.93410   0.38480   0.09320   Biso      1.000     O          -0.578391           
         O5        1.0000    0.79870   0.38790   0.14533   Biso      1.000     O          -0.603531           
         O6        1.0000    0.54930   0.93410   0.09320   Biso      1.000     O          -0.578395           
         O7        1.0000    0.41080   0.79870   0.14533   Biso      1.000     O          -0.603532           
         O8        1.0000    0.38480   0.45070   0.09320   Biso      1.000     O          -0.578385           
         O9        1.0000    0.38790   0.58920   0.14533   Biso      1.000     O          -0.6035159999999999           
         O10       1.0000    0.06590   0.61520   0.09320   Biso      1.000     O          -0.578391           
         O11       1.0000    0.38480   0.93410   0.40680   Biso      1.000     O          -0.578384           
         O12       1.0000    0.45070   0.06590   0.09320   Biso      1.000     O          -0.578391           
         O13       1.0000    0.38790   0.79870   0.35467   Biso      1.000     O          -0.603548           
         O14       1.0000    0.06590   0.45070   0.40680   Biso      1.000     O          -0.578387           
         O15       1.0000    0.20130   0.58920   0.35467   Biso      1.000     O          -0.603509           
         O16       1.0000    0.54930   0.61520   0.40680   Biso      1.000     O          -0.578391           
         O17       1.0000    0.41080   0.61210   0.35467   Biso      1.000     O          -0.6035229999999999           
         O18       1.0000    0.61520   0.06590   0.40680   Biso      1.000     O          -0.578385           
         O19       1.0000    0.61210   0.20130   0.35467   Biso      1.000     O          -0.603546           
         O20       1.0000    0.93410   0.54930   0.40680   Biso      1.000     O          -0.578385           
         O21       1.0000    0.79870   0.41080   0.35467   Biso      1.000     O          -0.6035119999999999           
         O22       1.0000    0.20130   0.61210   0.14533   Biso      1.000     O          -0.603533           
         O23       1.0000    0.41080   0.61210   0.64533   Biso      1.000     O          -0.603525           
         O24       1.0000    0.06590   0.45070   0.59320   Biso      1.000     O          -0.578391           
         O25       1.0000    0.20130   0.58920   0.64533   Biso      1.000     O          -0.6035119999999999           
         O26       1.0000    0.45070   0.38480   0.40680   Biso      1.000     O          -0.578389           
         O27       1.0000    0.54930   0.93410   0.90680   Biso      1.000     O          -0.578397           
         O28       1.0000    0.41080   0.79870   0.85467   Biso      1.000     O          -0.603534           
         O29       1.0000    0.38480   0.45070   0.90680   Biso      1.000     O          -0.578388           
         O30       1.0000    0.38790   0.58920   0.85467   Biso      1.000     O          -0.60352  
         O31       1.0000    0.06590   0.61520   0.90680   Biso      1.000     O          -0.578395           
         O32       1.0000    0.20130   0.61210   0.85467   Biso      1.000     O          -0.603535           
         O33       1.0000    0.45070   0.06590   0.90680   Biso      1.000     O          -0.578395           
         O34       1.0000    0.58920   0.20130   0.85467   Biso      1.000     O          -0.603539           
         O35       1.0000    0.61520   0.54930   0.90680   Biso      1.000     O          -0.578388           
         O36       1.0000    0.61210   0.41080   0.85467   Biso      1.000     O          -0.603518           
         O37       1.0000    0.93410   0.38480   0.90680   Biso      1.000     O          -0.578394           
         O38       1.0000    0.79870   0.38790   0.85467   Biso      1.000     O          -0.603534           
         O39       1.0000    0.61520   0.06590   0.59320   Biso      1.000     O          -0.578388           
         O40       1.0000    0.61210   0.20130   0.64533   Biso      1.000     O          -0.603548           
         O41       1.0000    0.93410   0.54930   0.59320   Biso      1.000     O          -0.578388           
         O42       1.0000    0.79870   0.41080   0.64533   Biso      1.000     O          -0.603514           
         O43       1.0000    0.45070   0.38480   0.59320   Biso      1.000     O          -0.578393           
         O44       1.0000    0.58920   0.38790   0.64533   Biso      1.000     O          -0.603528           
         O45       1.0000    0.38480   0.93410   0.59320   Biso      1.000     O          -0.578387           
         O46       1.0000    0.38790   0.79870   0.64533   Biso      1.000     O          -0.6035520000000001           
         O47       1.0000    0.54930   0.61520   0.59320   Biso      1.000     O          -0.578394           
         O48       1.0000    0.58920   0.38790   0.35467   Biso      1.000     O          -0.603525 