
##########################################################################
#               Crystallographic Information Format file
#               Produced by PyCifRW module
#
#  This is a CIF file.  CIF has been adopted by the International
#  Union of Crystallography as the standard for data archiving and
#  transmission.
#
#  For information on this file format, follow the CIF links at
#  http://www.iucr.org
##########################################################################

data_image0

_cell_length_a                          15.307
_cell_length_b                          15.307
_cell_length_c                          15.695
_cell_angle_alpha                       90
_cell_angle_beta                        90
_cell_angle_gamma                       120
_symmetry_space_group_name_H-M          'P 1'
_symmetry_int_tables_number             1
loop_
  _symmetry_equiv_pos_as_xyz
         'x, y, z' 
loop_
  _atom_site_label
  _atom_site_occupancy
  _atom_site_fract_x
  _atom_site_fract_y
  _atom_site_fract_z
  _atom_site_thermal_displace_type
  _atom_site_B_iso_or_equiv
  _atom_site_type_symbol
  _atom_site_charge
         C1        1.0000    0.14000   0.64750   0.14040   Biso      1.000     C          0.595857  
         C2        1.0000    0.89160   0.21510   0.80510   Biso      1.000     C          -0.135472           
         C3        1.0000    0.83830   0.26520   0.80340   Biso      1.000     C          0.14169500000000002           
         C4        1.0000    0.86000   0.35250   0.85960   Biso      1.000     C          0.595856  
         C5        1.0000    0.78490   0.67650   0.80510   Biso      1.000     C          -0.13547  
         C6        1.0000    0.73480   0.57310   0.80340   Biso      1.000     C          0.141693  
         C7        1.0000    0.64750   0.50750   0.85960   Biso      1.000     C          0.5958439999999999  
         C8        1.0000    0.67650   0.89160   0.80510   Biso      1.000     C          -0.13547  
         C9        1.0000    0.57310   0.83830   0.80340   Biso      1.000     C          0.141704  
         C10       1.0000    0.50750   0.86000   0.85960   Biso      1.000     C          0.595846  
         C11       1.0000    0.10840   0.78490   0.80510   Biso      1.000     C          -0.135472           
         C12       1.0000    0.16170   0.73480   0.80340   Biso      1.000     C          0.14169500000000002           
         C13       1.0000    0.14000   0.64750   0.85960   Biso      1.000     C          0.595856  
         C14       1.0000    0.21510   0.32350   0.80510   Biso      1.000     C          -0.135469           
         C15       1.0000    0.26520   0.42690   0.80340   Biso      1.000     C          0.141693  
         C16       1.0000    0.35250   0.49250   0.85960   Biso      1.000     C          0.5958439999999999  
         C17       1.0000    0.78490   0.67650   0.19490   Biso      1.000     C          -0.135469           
         C18       1.0000    0.86000   0.35250   0.14040   Biso      1.000     C          0.595857  
         C19       1.0000    0.49250   0.14000   0.85960   Biso      1.000     C          0.595847  
         C20       1.0000    0.83830   0.26520   0.19660   Biso      1.000     C          0.14168   
         C21       1.0000    0.42690   0.16170   0.80340   Biso      1.000     C          0.141688  
         C22       1.0000    0.86000   0.50750   0.64040   Biso      1.000     C          0.5958439999999999  
         C23       1.0000    0.21510   0.89160   0.69490   Biso      1.000     C          -0.13547  
         C24       1.0000    0.26520   0.83830   0.69660   Biso      1.000     C          0.141704  
         C25       1.0000    0.35250   0.86000   0.64040   Biso      1.000     C          0.595847  
         C26       1.0000    0.67650   0.78490   0.69490   Biso      1.000     C          -0.135472           
         C27       1.0000    0.57310   0.73480   0.69660   Biso      1.000     C          0.14169500000000002           
         C28       1.0000    0.50750   0.64750   0.64040   Biso      1.000     C          0.595855  
         C29       1.0000    0.10840   0.32350   0.69490   Biso      1.000     C          -0.135469           
         C30       1.0000    0.16170   0.42690   0.69660   Biso      1.000     C          0.141693  
         C31       1.0000    0.14000   0.49250   0.64040   Biso      1.000     C          0.5958439999999999  
         C32       1.0000    0.78490   0.10840   0.69490   Biso      1.000     C          -0.13547  
         C33       1.0000    0.73480   0.16170   0.69660   Biso      1.000     C          0.141704  
         C34       1.0000    0.64750   0.14000   0.64040   Biso      1.000     C          0.595847  
         C35       1.0000    0.32350   0.21510   0.69490   Biso      1.000     C          -0.135472           
         C36       1.0000    0.42690   0.26520   0.69660   Biso      1.000     C          0.14169400000000001           
         C37       1.0000    0.49250   0.35250   0.64040   Biso      1.000     C          0.595855  
         C38       1.0000    0.89160   0.67650   0.69490   Biso      1.000     C          -0.135469           
         C39       1.0000    0.83830   0.57310   0.69660   Biso      1.000     C          0.141693  
         C40       1.0000    0.32350   0.10840   0.80510   Biso      1.000     C          -0.135453           
         C41       1.0000    0.89160   0.21510   0.19490   Biso      1.000     C          -0.135455           
         C42       1.0000    0.49250   0.14000   0.14040   Biso      1.000     C          0.5958479999999999  
         C43       1.0000    0.42690   0.16170   0.19660   Biso      1.000     C          0.141688  
         C44       1.0000    0.42690   0.26520   0.30340   Biso      1.000     C          0.141679  
         C45       1.0000    0.32350   0.21510   0.30510   Biso      1.000     C          -0.135455           
         C46       1.0000    0.64750   0.14000   0.35960   Biso      1.000     C          0.5958479999999999  
         C47       1.0000    0.73480   0.16170   0.30340   Biso      1.000     C          0.141688  
         C48       1.0000    0.78490   0.10840   0.30510   Biso      1.000     C          -0.135453           
         C49       1.0000    0.13555   0.27110   0.75000   Biso      1.000     C          -0.048039           
         C50       1.0000    0.13555   0.86445   0.75000   Biso      1.000     C          -0.048047           
         C51       1.0000    0.72890   0.86445   0.75000   Biso      1.000     C          -0.048047           
         C52       1.0000    0.86445   0.72890   0.75000   Biso      1.000     C          -0.048039           
         C53       1.0000    0.86445   0.13555   0.75000   Biso      1.000     C          -0.048047           
         C54       1.0000    0.27110   0.13555   0.75000   Biso      1.000     C          -0.048049           
         C55       1.0000    0.86445   0.72890   0.25000   Biso      1.000     C          -0.048042           
         C56       1.0000    0.86445   0.13555   0.25000   Biso      1.000     C          -0.048053           
         C57       1.0000    0.27110   0.13555   0.25000   Biso      1.000     C          -0.048055           
         C58       1.0000    0.13555   0.27110   0.25000   Biso      1.000     C          -0.048049           
         C59       1.0000    0.13555   0.86445   0.25000   Biso      1.000     C          -0.048057           
         C60       1.0000    0.72890   0.86445   0.25000   Biso      1.000     C          -0.048057           
         C61       1.0000    0.49250   0.35250   0.35960   Biso      1.000     C          0.595857  
         C62       1.0000    0.89160   0.67650   0.30510   Biso      1.000     C          -0.135467           
         C63       1.0000    0.83830   0.57310   0.30340   Biso      1.000     C          0.141693  
         C64       1.0000    0.86000   0.50750   0.35960   Biso      1.000     C          0.5958439999999999  
         C65       1.0000    0.32350   0.10840   0.19490   Biso      1.000     C          -0.135451           
         C66       1.0000    0.35250   0.49250   0.14040   Biso      1.000     C          0.595845  
         C67       1.0000    0.26520   0.42690   0.19660   Biso      1.000     C          0.141678  
         C68       1.0000    0.21510   0.32350   0.19490   Biso      1.000     C          -0.13545  
         C69       1.0000    0.16170   0.73480   0.19660   Biso      1.000     C          0.141679  
         C70       1.0000    0.10840   0.78490   0.19490   Biso      1.000     C          -0.135452           
         C71       1.0000    0.50750   0.86000   0.14040   Biso      1.000     C          0.5958479999999999  
         C72       1.0000    0.57310   0.83830   0.19660   Biso      1.000     C          0.141688  
         C73       1.0000    0.64750   0.50750   0.14040   Biso      1.000     C          0.5958439999999999  
         C74       1.0000    0.67650   0.89160   0.19490   Biso      1.000     C          -0.13545  
         C75       1.0000    0.16170   0.42690   0.30340   Biso      1.000     C          0.141678  
         C76       1.0000    0.10840   0.32350   0.30510   Biso      1.000     C          -0.13545  
         C77       1.0000    0.50750   0.64750   0.35960   Biso      1.000     C          0.595857  
         C78       1.0000    0.57310   0.73480   0.30340   Biso      1.000     C          0.141679  
         C79       1.0000    0.67650   0.78490   0.30510   Biso      1.000     C          -0.135453           
         C80       1.0000    0.35250   0.86000   0.35960   Biso      1.000     C          0.5958479999999999  
         C81       1.0000    0.26520   0.83830   0.30340   Biso      1.000     C          0.141688  
         C82       1.0000    0.21510   0.89160   0.30510   Biso      1.000     C          -0.13545  
         C83       1.0000    0.14000   0.49250   0.35960   Biso      1.000     C          0.595845  
         C84       1.0000    0.73480   0.57310   0.19660   Biso      1.000     C          0.141693  
         Gd1       1.0000    0.33333   0.66666   0.75000   Biso      1.000     Gd          1.820916  
         Gd2       1.0000    0.66667   0.33334   0.75000   Biso      1.000     Gd          1.820916  
         Gd3       1.0000    0.66667   0.33334   0.25000   Biso      1.000     Gd          1.820915  
         Gd4       1.0000    0.33333   0.66666   0.25000   Biso      1.000     Gd          1.820915  
         H1        1.0000    0.10050   0.89950   0.25000   Biso      1.000     H          0.099585  
         H2        1.0000    0.94510   0.23450   0.15720   Biso      1.000     H          0.126855  
         H3        1.0000    0.76550   0.71060   0.15720   Biso      1.000     H          0.12686   
         H4        1.0000    0.79900   0.89950   0.25000   Biso      1.000     H          0.099584  
         H5        1.0000    0.71060   0.76550   0.65720   Biso      1.000     H          0.126856  
         H6        1.0000    0.05490   0.28940   0.65720   Biso      1.000     H          0.12686   
         H7        1.0000    0.76550   0.05490   0.65720   Biso      1.000     H          0.126857  
         H8        1.0000    0.28940   0.23450   0.65720   Biso      1.000     H          0.126856  
         H9        1.0000    0.28940   0.05490   0.84280   Biso      1.000     H          0.126856  
         H10       1.0000    0.28940   0.05490   0.15720   Biso      1.000     H          0.126857  
         H11       1.0000    0.94510   0.23450   0.84280   Biso      1.000     H          0.126856  
         H12       1.0000    0.76550   0.71060   0.84280   Biso      1.000     H          0.12686   
         H13       1.0000    0.71060   0.94510   0.84280   Biso      1.000     H          0.126858  
         H14       1.0000    0.05490   0.76550   0.84280   Biso      1.000     H          0.126856  
         H15       1.0000    0.23450   0.28940   0.84280   Biso      1.000     H          0.12686   
         H16       1.0000    0.94510   0.71060   0.65720   Biso      1.000     H          0.12686   
         H17       1.0000    0.23450   0.28940   0.15720   Biso      1.000     H          0.126859  
         H18       1.0000    0.23450   0.94510   0.65720   Biso      1.000     H          0.126857  
         H19       1.0000    0.71060   0.94510   0.15720   Biso      1.000     H          0.126857  
         H20       1.0000    0.10050   0.20100   0.25000   Biso      1.000     H          0.099587  
         H21       1.0000    0.20100   0.10050   0.25000   Biso      1.000     H          0.099584  
         H22       1.0000    0.89950   0.10050   0.25000   Biso      1.000     H          0.099584  
         H23       1.0000    0.05490   0.76550   0.15720   Biso      1.000     H          0.126855  
         H24       1.0000    0.20100   0.10050   0.75000   Biso      1.000     H          0.099582  
         H25       1.0000    0.89950   0.10050   0.75000   Biso      1.000     H          0.099582  
         H26       1.0000    0.89950   0.79900   0.75000   Biso      1.000     H          0.099585  
         H27       1.0000    0.79900   0.89950   0.75000   Biso      1.000     H          0.099582  
         H28       1.0000    0.89950   0.79900   0.25000   Biso      1.000     H          0.099587  
         H29       1.0000    0.10050   0.89950   0.75000   Biso      1.000     H          0.099583  
         H30       1.0000    0.10050   0.20100   0.75000   Biso      1.000     H          0.099585  
         H31       1.0000    0.76550   0.05490   0.34280   Biso      1.000     H          0.126856  
         H32       1.0000    0.28940   0.23450   0.34280   Biso      1.000     H          0.126856  
         H33       1.0000    0.94510   0.71060   0.34280   Biso      1.000     H          0.12686   
         H34       1.0000    0.05490   0.28940   0.34280   Biso      1.000     H          0.126859  
         H35       1.0000    0.71060   0.76550   0.34280   Biso      1.000     H          0.126855  
         H36       1.0000    0.23450   0.94510   0.34280   Biso      1.000     H          0.126856  
         Mn1       1.0000    0.50000   0.50000   0.00000   Biso      1.000     Mn          1.158626  
         Mn2       1.0000    0.00000   0.50000   0.00000   Biso      1.000     Mn          1.158622  
         Mn3       1.0000    0.50000   0.00000   0.00000   Biso      1.000     Mn          1.1586290000000001  
         Mn4       1.0000    0.00000   0.50000   0.50000   Biso      1.000     Mn          1.1586290000000001  
         Mn5       1.0000    0.50000   0.50000   0.50000   Biso      1.000     Mn          1.158621  
         Mn6       1.0000    0.50000   0.00000   0.50000   Biso      1.000     Mn          1.158627  
         N1        1.0000    0.23937   0.76063   0.25000   Biso      1.000     N          -0.33596  
         N2        1.0000    0.23937   0.47874   0.25000   Biso      1.000     N          -0.335933           
         N3        1.0000    0.47874   0.23937   0.25000   Biso      1.000     N          -0.33596  
         N4        1.0000    0.52126   0.76063   0.25000   Biso      1.000     N          -0.33596  
         N5        1.0000    0.76063   0.52126   0.25000   Biso      1.000     N          -0.335936           
         N6        1.0000    0.76063   0.23937   0.25000   Biso      1.000     N          -0.33596  
         N7        1.0000    0.76063   0.23937   0.75000   Biso      1.000     N          -0.335963           
         N8        1.0000    0.76063   0.52126   0.75000   Biso      1.000     N          -0.335936           
         N9        1.0000    0.52126   0.76063   0.75000   Biso      1.000     N          -0.335963           
         N10       1.0000    0.23937   0.76063   0.75000   Biso      1.000     N          -0.335963           
         N11       1.0000    0.23937   0.47874   0.75000   Biso      1.000     N          -0.335936           
         N12       1.0000    0.47874   0.23937   0.75000   Biso      1.000     N          -0.335962           
         O1        1.0000    0.61590   0.55134   0.09343   Biso      1.000     O          -0.5744560000000001           
         O2        1.0000    0.80082   0.38675   0.14419   Biso      1.000     O          -0.6054189999999999           
         O3        1.0000    0.93544   0.38410   0.09343   Biso      1.000     O          -0.574461           
         O4        1.0000    0.58593   0.19918   0.14419   Biso      1.000     O          -0.605413           
         O5        1.0000    0.44866   0.06456   0.09343   Biso      1.000     O          -0.574461           
         O6        1.0000    0.38675   0.58593   0.14419   Biso      1.000     O          -0.605398           
         O7        1.0000    0.38410   0.44866   0.09343   Biso      1.000     O          -0.574457           
         O8        1.0000    0.19918   0.61325   0.14419   Biso      1.000     O          -0.605418           
         O9        1.0000    0.06456   0.61590   0.09343   Biso      1.000     O          -0.574461           
         O10       1.0000    0.41407   0.80082   0.14419   Biso      1.000     O          -0.605413           
         O11       1.0000    0.19918   0.58593   0.35581   Biso      1.000     O          -0.605399           
         O12       1.0000    0.61325   0.41407   0.14419   Biso      1.000     O          -0.605398           
         O13       1.0000    0.06456   0.44866   0.40657   Biso      1.000     O          -0.574458           
         O14       1.0000    0.41407   0.61325   0.35581   Biso      1.000     O          -0.6054189999999999           
         O15       1.0000    0.55134   0.61590   0.40657   Biso      1.000     O          -0.574461           
         O16       1.0000    0.38675   0.80082   0.35581   Biso      1.000     O          -0.605412           
         O17       1.0000    0.38410   0.93544   0.40657   Biso      1.000     O          -0.574461           
         O18       1.0000    0.80082   0.41407   0.35581   Biso      1.000     O          -0.605399           
         O19       1.0000    0.93544   0.55134   0.40657   Biso      1.000     O          -0.574457           
         O20       1.0000    0.58593   0.38675   0.35581   Biso      1.000     O          -0.6054189999999999           
         O21       1.0000    0.44866   0.38410   0.40657   Biso      1.000     O          -0.574461           
         O22       1.0000    0.55134   0.93544   0.09343   Biso      1.000     O          -0.574462           
         O23       1.0000    0.38410   0.93544   0.59343   Biso      1.000     O          -0.5744600000000001           
         O24       1.0000    0.41407   0.61325   0.64419   Biso      1.000     O          -0.605418           
         O25       1.0000    0.55134   0.61590   0.59343   Biso      1.000     O          -0.5744600000000001           
         O26       1.0000    0.61325   0.19918   0.35581   Biso      1.000     O          -0.605412           
         O27       1.0000    0.38675   0.58593   0.85581   Biso      1.000     O          -0.605398           
         O28       1.0000    0.38410   0.44866   0.90657   Biso      1.000     O          -0.5744560000000001           
         O29       1.0000    0.19918   0.61325   0.85581   Biso      1.000     O          -0.605418           
         O30       1.0000    0.06456   0.61590   0.90657   Biso      1.000     O          -0.5744600000000001           
         O31       1.0000    0.41407   0.80082   0.85581   Biso      1.000     O          -0.605413           
         O32       1.0000    0.55134   0.93544   0.90657   Biso      1.000     O          -0.574461           
         O33       1.0000    0.61325   0.41407   0.85581   Biso      1.000     O          -0.605398           
         O34       1.0000    0.61590   0.55134   0.90657   Biso      1.000     O          -0.5744560000000001           
         O35       1.0000    0.80082   0.38675   0.85581   Biso      1.000     O          -0.605418           
         O36       1.0000    0.93544   0.38410   0.90657   Biso      1.000     O          -0.5744600000000001           
         O37       1.0000    0.58593   0.19918   0.85581   Biso      1.000     O          -0.605413           
         O38       1.0000    0.44866   0.06456   0.90657   Biso      1.000     O          -0.574461           
         O39       1.0000    0.80082   0.41407   0.64419   Biso      1.000     O          -0.605399           
         O40       1.0000    0.93544   0.55134   0.59343   Biso      1.000     O          -0.574457           
         O41       1.0000    0.58593   0.38675   0.64419   Biso      1.000     O          -0.6054189999999999           
         O42       1.0000    0.44866   0.38410   0.59343   Biso      1.000     O          -0.5744600000000001           
         O43       1.0000    0.61325   0.19918   0.64419   Biso      1.000     O          -0.605412           
         O44       1.0000    0.61590   0.06456   0.59343   Biso      1.000     O          -0.5744600000000001           
         O45       1.0000    0.19918   0.58593   0.64419   Biso      1.000     O          -0.605399           
         O46       1.0000    0.06456   0.44866   0.59343   Biso      1.000     O          -0.574457           
         O47       1.0000    0.38675   0.80082   0.64419   Biso      1.000     O          -0.605412           
         O48       1.0000    0.61590   0.06456   0.40657   Biso      1.000     O          -0.574461 