
##########################################################################
#               Crystallographic Information Format file
#               Produced by PyCifRW module
#
#  This is a CIF file.  CIF has been adopted by the International
#  Union of Crystallography as the standard for data archiving and
#  transmission.
#
#  For information on this file format, follow the CIF links at
#  http://www.iucr.org
##########################################################################

data_image0

_cell_length_a                          15.512
_cell_length_b                          15.512
_cell_length_c                          15.645
_cell_angle_alpha                       90
_cell_angle_beta                        90
_cell_angle_gamma                       120
_symmetry_space_group_name_H-M          'P 1'
_symmetry_int_tables_number             1
loop_
  _symmetry_equiv_pos_as_xyz
         'x, y, z' 
loop_
  _atom_site_label
  _atom_site_occupancy
  _atom_site_fract_x
  _atom_site_fract_y
  _atom_site_fract_z
  _atom_site_thermal_displace_type
  _atom_site_B_iso_or_equiv
  _atom_site_type_symbol
  _atom_site_charge
         C1        1.0000    0.16030   0.73670   0.19660   Biso      1.000     C          0.139211  
         C2        1.0000    0.10710   0.78670   0.19560   Biso      1.000     C          -0.137988           
         C3        1.0000    0.13630   0.64880   0.13940   Biso      1.000     C          0.592972  
         C4        1.0000    0.21330   0.32040   0.19560   Biso      1.000     C          -0.137982           
         C5        1.0000    0.35120   0.48750   0.13940   Biso      1.000     C          0.592969  
         C6        1.0000    0.26330   0.42360   0.19660   Biso      1.000     C          0.139223  
         C7        1.0000    0.32040   0.10710   0.19560   Biso      1.000     C          -0.137985           
         C8        1.0000    0.48750   0.13630   0.13940   Biso      1.000     C          0.592954  
         C9        1.0000    0.42360   0.16030   0.19660   Biso      1.000     C          0.139218  
         C10       1.0000    0.89290   0.21330   0.19560   Biso      1.000     C          -0.137988           
         C11       1.0000    0.86370   0.35120   0.13940   Biso      1.000     C          0.592971  
         C12       1.0000    0.83970   0.26330   0.19660   Biso      1.000     C          0.139212  
         C13       1.0000    0.78670   0.67960   0.19560   Biso      1.000     C          -0.137982           
         C14       1.0000    0.64880   0.51250   0.13940   Biso      1.000     C          0.592969  
         C15       1.0000    0.57640   0.83970   0.19660   Biso      1.000     C          0.139218  
         C16       1.0000    0.73670   0.57640   0.19660   Biso      1.000     C          0.139223  
         C17       1.0000    0.26330   0.83970   0.69660   Biso      1.000     C          0.139217  
         C18       1.0000    0.67960   0.78670   0.69560   Biso      1.000     C          -0.137987           
         C19       1.0000    0.51250   0.64880   0.63940   Biso      1.000     C          0.59297   
         C20       1.0000    0.57640   0.73670   0.69660   Biso      1.000     C          0.139211  
         C21       1.0000    0.10710   0.32040   0.69560   Biso      1.000     C          -0.137979           
         C22       1.0000    0.13630   0.48750   0.63940   Biso      1.000     C          0.592966  
         C23       1.0000    0.16030   0.42360   0.69660   Biso      1.000     C          0.139225  
         C24       1.0000    0.78670   0.10710   0.69560   Biso      1.000     C          -0.137984           
         C25       1.0000    0.64880   0.13630   0.63940   Biso      1.000     C          0.592956  
         C26       1.0000    0.73670   0.16030   0.69660   Biso      1.000     C          0.139219  
         C27       1.0000    0.32040   0.21330   0.69560   Biso      1.000     C          -0.137987           
         C28       1.0000    0.48750   0.35120   0.63940   Biso      1.000     C          0.59297   
         C29       1.0000    0.42360   0.26330   0.69660   Biso      1.000     C          0.139211  
         C30       1.0000    0.35120   0.86370   0.63940   Biso      1.000     C          0.592956  
         C31       1.0000    0.51250   0.86370   0.13940   Biso      1.000     C          0.592954  
         C32       1.0000    0.67960   0.89290   0.19560   Biso      1.000     C          -0.137985           
         C33       1.0000    0.16030   0.42360   0.30340   Biso      1.000     C          0.13922400000000001           
         C34       1.0000    0.73010   0.86505   0.25000   Biso      1.000     C          -0.044994           
         C35       1.0000    0.13495   0.86505   0.25000   Biso      1.000     C          -0.044994           
         C36       1.0000    0.13495   0.26990   0.25000   Biso      1.000     C          -0.044985000000000004         
         C37       1.0000    0.26990   0.13495   0.25000   Biso      1.000     C          -0.044994           
         C38       1.0000    0.86505   0.13495   0.25000   Biso      1.000     C          -0.044994           
         C39       1.0000    0.86505   0.73010   0.25000   Biso      1.000     C          -0.044985000000000004         
         C40       1.0000    0.26990   0.13495   0.75000   Biso      1.000     C          -0.044994           
         C41       1.0000    0.86505   0.13495   0.75000   Biso      1.000     C          -0.044994           
         C42       1.0000    0.86505   0.73010   0.75000   Biso      1.000     C          -0.044993           
         C43       1.0000    0.73010   0.86505   0.75000   Biso      1.000     C          -0.044994           
         C44       1.0000    0.13495   0.86505   0.75000   Biso      1.000     C          -0.045002           
         C45       1.0000    0.13495   0.26990   0.75000   Biso      1.000     C          -0.044985000000000004         
         C46       1.0000    0.78670   0.10710   0.30440   Biso      1.000     C          -0.137977           
         C47       1.0000    0.64880   0.13630   0.36060   Biso      1.000     C          0.592956  
         C48       1.0000    0.73670   0.16030   0.30340   Biso      1.000     C          0.139218  
         C49       1.0000    0.32040   0.21330   0.30440   Biso      1.000     C          -0.13798  
         C50       1.0000    0.48750   0.35120   0.36060   Biso      1.000     C          0.59297   
         C51       1.0000    0.42360   0.26330   0.30340   Biso      1.000     C          0.13921   
         C52       1.0000    0.89290   0.67960   0.30440   Biso      1.000     C          -0.137972           
         C53       1.0000    0.86370   0.51250   0.36060   Biso      1.000     C          0.592966  
         C54       1.0000    0.83970   0.57640   0.30340   Biso      1.000     C          0.13922400000000001           
         C55       1.0000    0.21330   0.89290   0.30440   Biso      1.000     C          -0.137977           
         C56       1.0000    0.35120   0.86370   0.36060   Biso      1.000     C          0.592956  
         C57       1.0000    0.26330   0.83970   0.30340   Biso      1.000     C          0.139218  
         C58       1.0000    0.67960   0.78670   0.30440   Biso      1.000     C          -0.13798  
         C59       1.0000    0.51250   0.64880   0.36060   Biso      1.000     C          0.59297   
         C60       1.0000    0.57640   0.73670   0.30340   Biso      1.000     C          0.13921   
         C61       1.0000    0.10710   0.32040   0.30440   Biso      1.000     C          -0.137972           
         C62       1.0000    0.13630   0.48750   0.36060   Biso      1.000     C          0.592966  
         C63       1.0000    0.89290   0.67960   0.69560   Biso      1.000     C          -0.137971           
         C64       1.0000    0.86370   0.51250   0.63940   Biso      1.000     C          0.592966  
         C65       1.0000    0.21330   0.89290   0.69560   Biso      1.000     C          -0.137976           
         C66       1.0000    0.32040   0.10710   0.80440   Biso      1.000     C          -0.137978           
         C67       1.0000    0.83970   0.57640   0.69660   Biso      1.000     C          0.13922400000000001           
         C68       1.0000    0.35120   0.48750   0.86060   Biso      1.000     C          0.592969  
         C69       1.0000    0.21330   0.32040   0.80440   Biso      1.000     C          -0.137975           
         C70       1.0000    0.16030   0.73670   0.80340   Biso      1.000     C          0.139211  
         C71       1.0000    0.13630   0.64880   0.86060   Biso      1.000     C          0.592972  
         C72       1.0000    0.10710   0.78670   0.80440   Biso      1.000     C          -0.13798  
         C73       1.0000    0.57640   0.83970   0.80340   Biso      1.000     C          0.139217  
         C74       1.0000    0.51250   0.86370   0.86060   Biso      1.000     C          0.592954  
         C75       1.0000    0.26330   0.42360   0.80340   Biso      1.000     C          0.139222  
         C76       1.0000    0.73670   0.57640   0.80340   Biso      1.000     C          0.139222  
         C77       1.0000    0.64880   0.51250   0.86060   Biso      1.000     C          0.592969  
         C78       1.0000    0.78670   0.67960   0.80440   Biso      1.000     C          -0.137974           
         C79       1.0000    0.83970   0.26330   0.80340   Biso      1.000     C          0.139211  
         C80       1.0000    0.86370   0.35120   0.86060   Biso      1.000     C          0.592972  
         C81       1.0000    0.89290   0.21330   0.80440   Biso      1.000     C          -0.137981           
         C82       1.0000    0.42360   0.16030   0.80340   Biso      1.000     C          0.139217  
         C83       1.0000    0.48750   0.13630   0.86060   Biso      1.000     C          0.592954  
         C84       1.0000    0.67960   0.89290   0.80440   Biso      1.000     C          -0.137978           
         H1        1.0000    0.71370   0.76720   0.65860   Biso      1.000     H          0.126158  
         H2        1.0000    0.23280   0.94650   0.65860   Biso      1.000     H          0.126159  
         H3        1.0000    0.23280   0.28630   0.15860   Biso      1.000     H          0.126163  
         H4        1.0000    0.94650   0.23280   0.15860   Biso      1.000     H          0.126159  
         H5        1.0000    0.28630   0.05350   0.15860   Biso      1.000     H          0.126161  
         H6        1.0000    0.05350   0.76720   0.15860   Biso      1.000     H          0.126159  
         H7        1.0000    0.76720   0.71370   0.15860   Biso      1.000     H          0.126163  
         H8        1.0000    0.05350   0.28630   0.65860   Biso      1.000     H          0.126161  
         H9        1.0000    0.28630   0.05350   0.84140   Biso      1.000     H          0.126161  
         H10       1.0000    0.94650   0.71370   0.65860   Biso      1.000     H          0.126161  
         H11       1.0000    0.94650   0.23280   0.84140   Biso      1.000     H          0.126158  
         H12       1.0000    0.76720   0.71370   0.84140   Biso      1.000     H          0.126162  
         H13       1.0000    0.71370   0.94650   0.84140   Biso      1.000     H          0.126161  
         H14       1.0000    0.05350   0.76720   0.84140   Biso      1.000     H          0.126158  
         H15       1.0000    0.71370   0.94650   0.15860   Biso      1.000     H          0.126161  
         H16       1.0000    0.23280   0.28630   0.84140   Biso      1.000     H          0.126162  
         H17       1.0000    0.76720   0.05350   0.65860   Biso      1.000     H          0.126159  
         H18       1.0000    0.05350   0.28630   0.34140   Biso      1.000     H          0.126161  
         H19       1.0000    0.28630   0.23280   0.65860   Biso      1.000     H          0.126158  
         H20       1.0000    0.23280   0.94650   0.34140   Biso      1.000     H          0.126159  
         H21       1.0000    0.79930   0.89965   0.25000   Biso      1.000     H          0.09818500000000001           
         H22       1.0000    0.71370   0.76720   0.34140   Biso      1.000     H          0.126158  
         H23       1.0000    0.10035   0.20070   0.25000   Biso      1.000     H          0.098188  
         H24       1.0000    0.20070   0.10035   0.25000   Biso      1.000     H          0.09818500000000001           
         H25       1.0000    0.89965   0.10035   0.25000   Biso      1.000     H          0.09818500000000001           
         H26       1.0000    0.89965   0.79930   0.25000   Biso      1.000     H          0.098188  
         H27       1.0000    0.20070   0.10035   0.75000   Biso      1.000     H          0.09818500000000001           
         H28       1.0000    0.89965   0.10035   0.75000   Biso      1.000     H          0.09818500000000001           
         H29       1.0000    0.10035   0.89965   0.25000   Biso      1.000     H          0.09818500000000001           
         H30       1.0000    0.79930   0.89965   0.75000   Biso      1.000     H          0.09818500000000001           
         H31       1.0000    0.10035   0.89965   0.75000   Biso      1.000     H          0.098186  
         H32       1.0000    0.10035   0.20070   0.75000   Biso      1.000     H          0.098188  
         H33       1.0000    0.76720   0.05350   0.34140   Biso      1.000     H          0.126159  
         H34       1.0000    0.28630   0.23280   0.34140   Biso      1.000     H          0.126158  
         H35       1.0000    0.94650   0.71370   0.34140   Biso      1.000     H          0.126161  
         H36       1.0000    0.89965   0.79930   0.75000   Biso      1.000     H          0.098188  
         Mn1       1.0000    0.50000   0.50000   0.00000   Biso      1.000     Mn          1.165518  
         Mn2       1.0000    0.00000   0.50000   0.00000   Biso      1.000     Mn          1.165489  
         Mn3       1.0000    0.50000   0.00000   0.00000   Biso      1.000     Mn          1.1654930000000001  
         Mn4       1.0000    0.00000   0.50000   0.50000   Biso      1.000     Mn          1.165485  
         Mn5       1.0000    0.50000   0.00000   0.50000   Biso      1.000     Mn          1.165494  
         Mn6       1.0000    0.50000   0.50000   0.50000   Biso      1.000     Mn          1.16549   
         N1        1.0000    0.23720   0.76280   0.25000   Biso      1.000     N          -0.337812           
         N2        1.0000    0.52560   0.76280   0.25000   Biso      1.000     N          -0.33781300000000003          
         N3        1.0000    0.23720   0.47440   0.25000   Biso      1.000     N          -0.337866           
         N4        1.0000    0.47440   0.23720   0.25000   Biso      1.000     N          -0.33781300000000003          
         N5        1.0000    0.76280   0.23720   0.25000   Biso      1.000     N          -0.33781300000000003          
         N6        1.0000    0.76280   0.52560   0.25000   Biso      1.000     N          -0.337866           
         N7        1.0000    0.47440   0.23720   0.75000   Biso      1.000     N          -0.337814           
         N8        1.0000    0.76280   0.23720   0.75000   Biso      1.000     N          -0.337812           
         N9        1.0000    0.52560   0.76280   0.75000   Biso      1.000     N          -0.33781300000000003          
         N10       1.0000    0.23720   0.76280   0.75000   Biso      1.000     N          -0.337812           
         N11       1.0000    0.23720   0.47440   0.75000   Biso      1.000     N          -0.337866           
         N12       1.0000    0.76280   0.52560   0.75000   Biso      1.000     N          -0.337866           
         O1        1.0000    0.38390   0.80320   0.64270   Biso      1.000     O          -0.626404           
         O2        1.0000    0.61680   0.55590   0.09510   Biso      1.000     O          -0.561649           
         O3        1.0000    0.61610   0.41930   0.14270   Biso      1.000     O          -0.6264310000000001           
         O4        1.0000    0.93910   0.38320   0.09510   Biso      1.000     O          -0.561653           
         O5        1.0000    0.80320   0.38390   0.14270   Biso      1.000     O          -0.62644  
         O6        1.0000    0.44410   0.06090   0.09510   Biso      1.000     O          -0.561654           
         O7        1.0000    0.58070   0.19680   0.14270   Biso      1.000     O          -0.626405           
         O8        1.0000    0.38320   0.44410   0.09510   Biso      1.000     O          -0.561649           
         O9        1.0000    0.38390   0.58070   0.14270   Biso      1.000     O          -0.6264310000000001           
         O10       1.0000    0.06090   0.61680   0.09510   Biso      1.000     O          -0.561653           
         O11       1.0000    0.19680   0.61610   0.14270   Biso      1.000     O          -0.62644  
         O12       1.0000    0.41930   0.80320   0.14270   Biso      1.000     O          -0.626405           
         O13       1.0000    0.06090   0.44410   0.40490   Biso      1.000     O          -0.56165  
         O14       1.0000    0.19680   0.58070   0.35730   Biso      1.000     O          -0.6264350000000001           
         O15       1.0000    0.55590   0.61680   0.40490   Biso      1.000     O          -0.561652           
         O16       1.0000    0.41930   0.61610   0.35730   Biso      1.000     O          -0.626438           
         O17       1.0000    0.38320   0.93910   0.40490   Biso      1.000     O          -0.561654           
         O18       1.0000    0.38390   0.80320   0.35730   Biso      1.000     O          -0.626404           
         O19       1.0000    0.93910   0.55590   0.40490   Biso      1.000     O          -0.56165  
         O20       1.0000    0.38320   0.93910   0.59510   Biso      1.000     O          -0.561654           
         O21       1.0000    0.80320   0.41930   0.35730   Biso      1.000     O          -0.6264350000000001           
         O22       1.0000    0.44410   0.38320   0.40490   Biso      1.000     O          -0.561652           
         O23       1.0000    0.58070   0.38390   0.35730   Biso      1.000     O          -0.626438           
         O24       1.0000    0.55590   0.93910   0.09510   Biso      1.000     O          -0.561654           
         O25       1.0000    0.41930   0.61610   0.64270   Biso      1.000     O          -0.626438           
         O26       1.0000    0.61610   0.19680   0.35730   Biso      1.000     O          -0.626404           
         O27       1.0000    0.19680   0.58070   0.64270   Biso      1.000     O          -0.6264350000000001           
         O28       1.0000    0.61680   0.06090   0.40490   Biso      1.000     O          -0.561654           
         O29       1.0000    0.38320   0.44410   0.90490   Biso      1.000     O          -0.561649           
         O30       1.0000    0.38390   0.58070   0.85730   Biso      1.000     O          -0.6264310000000001           
         O31       1.0000    0.06090   0.61680   0.90490   Biso      1.000     O          -0.561653           
         O32       1.0000    0.19680   0.61610   0.85730   Biso      1.000     O          -0.62644  
         O33       1.0000    0.55590   0.93910   0.90490   Biso      1.000     O          -0.561655           
         O34       1.0000    0.41930   0.80320   0.85730   Biso      1.000     O          -0.626405           
         O35       1.0000    0.61680   0.55590   0.90490   Biso      1.000     O          -0.561649           
         O36       1.0000    0.55590   0.61680   0.59510   Biso      1.000     O          -0.561652           
         O37       1.0000    0.93910   0.38320   0.90490   Biso      1.000     O          -0.561653           
         O38       1.0000    0.61610   0.41930   0.85730   Biso      1.000     O          -0.6264310000000001           
         O39       1.0000    0.44410   0.06090   0.90490   Biso      1.000     O          -0.561655           
         O40       1.0000    0.58070   0.19680   0.85730   Biso      1.000     O          -0.626405           
         O41       1.0000    0.93910   0.55590   0.59510   Biso      1.000     O          -0.56165  
         O42       1.0000    0.80320   0.41930   0.64270   Biso      1.000     O          -0.6264350000000001           
         O43       1.0000    0.44410   0.38320   0.59510   Biso      1.000     O          -0.561652           
         O44       1.0000    0.58070   0.38390   0.64270   Biso      1.000     O          -0.626438           
         O45       1.0000    0.61680   0.06090   0.59510   Biso      1.000     O          -0.561654           
         O46       1.0000    0.61610   0.19680   0.64270   Biso      1.000     O          -0.626404           
         O47       1.0000    0.06090   0.44410   0.59510   Biso      1.000     O          -0.561649           
         O48       1.0000    0.80320   0.38390   0.85730   Biso      1.000     O          -0.62644  
         Pr1       1.0000    0.33333   0.66666   0.25000   Biso      1.000     Pr          1.911963  
         Pr2       1.0000    0.66667   0.33334   0.25000   Biso      1.000     Pr          1.911963  
         Pr3       1.0000    0.66667   0.33334   0.75000   Biso      1.000     Pr          1.911963  
         Pr4       1.0000    0.33333   0.66666   0.75000   Biso      1.000     Pr          1.911963 