
##########################################################################
#               Crystallographic Information Format file
#               Produced by PyCifRW module
#
#  This is a CIF file.  CIF has been adopted by the International
#  Union of Crystallography as the standard for data archiving and
#  transmission.
#
#  For information on this file format, follow the CIF links at
#  http://www.iucr.org
##########################################################################

data_image0

_cell_length_a                          8.1523
_cell_length_b                          18.051
_cell_length_c                          21.2912
_cell_angle_alpha                       90
_cell_angle_beta                        90
_cell_angle_gamma                       90
_symmetry_space_group_name_H-M          'P 1'
_symmetry_int_tables_number             1
loop_
  _symmetry_equiv_pos_as_xyz
         'x, y, z' 
loop_
  _atom_site_label
  _atom_site_occupancy
  _atom_site_fract_x
  _atom_site_fract_y
  _atom_site_fract_z
  _atom_site_thermal_displace_type
  _atom_site_B_iso_or_equiv
  _atom_site_type_symbol
  _atom_site_charge
         C1        1.0000    0.87960   0.56058   0.19355   Biso      1.000     C          -0.002058           
         C2        1.0000    0.86140   0.46284   0.11517   Biso      1.000     C          -0.067686           
         C3        1.0000    0.89820   0.40875   0.16249   Biso      1.000     C          -0.073287           
         C4        1.0000    0.66040   0.24710   0.07630   Biso      1.000     C          -0.155839           
         C5        1.0000    0.06670   0.48710   0.95032   Biso      1.000     C          -0.162788           
         C6        1.0000    0.96630   0.53270   0.30081   Biso      1.000     C          -0.136101           
         C7        1.0000    0.04430   0.45194   0.00781   Biso      1.000     C          0.083462  
         C8        1.0000    0.69500   0.29500   0.12535   Biso      1.000     C          0.070375  
         C9        1.0000    0.90310   0.65750   0.27050   Biso      1.000     C          -0.070772           
         C10       1.0000    0.93530   0.43137   0.22202   Biso      1.000     C          0.152439  
         C11       1.0000    0.92780   0.50749   0.23927   Biso      1.000     C          0.003633  
         C12       1.0000    0.32010   0.57165   0.54110   Biso      1.000     C          -0.157797           
         C13       1.0000    0.33590   0.43910   0.01807   Biso      1.000     C          -0.074867           
         C14       1.0000    0.22410   0.49770   0.92830   Biso      1.000     C          -0.064565           
         C15       1.0000    0.93960   0.30266   0.35590   Biso      1.000     C          0.628869  
         C16       1.0000    0.86470   0.34860   0.30408   Biso      1.000     C          -0.1524   
         C17       1.0000    0.86770   0.63591   0.21063   Biso      1.000     C          -0.121449           
         C18       1.0000    0.40720   0.30490   0.14670   Biso      1.000     C          -0.069408           
         C19       1.0000    0.49930   0.22840   0.06330   Biso      1.000     C          -0.070518           
         C20       1.0000    0.56730   0.32422   0.16050   Biso      1.000     C          -0.162088           
         C21       1.0000    0.64550   0.59523   0.07380   Biso      1.000     C          -0.162505           
         C22       1.0000    0.37260   0.25650   0.09880   Biso      1.000     C          -0.102153           
         C23       1.0000    0.35890   0.47490   0.96160   Biso      1.000     C          -0.103663           
         C24       1.0000    0.95430   0.60550   0.31509   Biso      1.000     C          -0.082961           
         C25       1.0000    0.60530   0.66536   0.03886   Biso      1.000     C          0.637479  
         C26       1.0000    0.64980   0.46388   0.63126   Biso      1.000     C          0.154935  
         C27       1.0000    0.62040   0.43942   0.69355   Biso      1.000     C          -0.002057           
         C28       1.0000    0.89470   0.33464   0.53886   Biso      1.000     C          0.637479  
         C29       1.0000    0.14110   0.52510   0.46160   Biso      1.000     C          -0.103673           
         C30       1.0000    0.12740   0.74350   0.59880   Biso      1.000     C          -0.10216  
         C31       1.0000    0.85450   0.40477   0.57380   Biso      1.000     C          -0.162505           
         C32       1.0000    0.93270   0.67578   0.66050   Biso      1.000     C          -0.162088           
         C33       1.0000    0.00070   0.77160   0.56330   Biso      1.000     C          -0.070516           
         C34       1.0000    0.09280   0.69510   0.64670   Biso      1.000     C          -0.069404           
         C35       1.0000    0.63230   0.36409   0.71063   Biso      1.000     C          -0.121458           
         C36       1.0000    0.63530   0.65140   0.80408   Biso      1.000     C          -0.1524   
         C37       1.0000    0.56040   0.69734   0.85590   Biso      1.000     C          0.628869  
         C38       1.0000    0.63860   0.53716   0.61517   Biso      1.000     C          -0.067682           
         C39       1.0000    0.27590   0.50230   0.42830   Biso      1.000     C          -0.064561           
         C40       1.0000    0.16410   0.56090   0.51807   Biso      1.000     C          -0.074856           
         C41       1.0000    0.57220   0.49251   0.73927   Biso      1.000     C          0.003635  
         C42       1.0000    0.56470   0.56863   0.72202   Biso      1.000     C          0.152431  
         C43       1.0000    0.59690   0.34250   0.77050   Biso      1.000     C          -0.070762           
         C44       1.0000    0.80500   0.70500   0.62535   Biso      1.000     C          0.070374  
         C45       1.0000    0.45570   0.54806   0.50781   Biso      1.000     C          0.083463  
         C46       1.0000    0.53370   0.46730   0.80081   Biso      1.000     C          -0.136102           
         C47       1.0000    0.43330   0.51290   0.45032   Biso      1.000     C          -0.162786           
         C48       1.0000    0.83960   0.75290   0.57630   Biso      1.000     C          -0.155837           
         C49       1.0000    0.60180   0.59125   0.66249   Biso      1.000     C          -0.073279           
         C50       1.0000    0.54570   0.39450   0.81509   Biso      1.000     C          -0.082962           
         C51       1.0000    0.67990   0.07165   0.95890   Biso      1.000     C          -0.157796           
         C52       1.0000    0.35020   0.96388   0.86874   Biso      1.000     C          0.154936  
         C53       1.0000    0.36140   0.03716   0.88483   Biso      1.000     C          -0.067681           
         C54       1.0000    0.10180   0.90875   0.33751   Biso      1.000     C          -0.073287           
         C55       1.0000    0.33960   0.74710   0.42370   Biso      1.000     C          -0.155839           
         C56       1.0000    0.93330   0.98710   0.54968   Biso      1.000     C          -0.162789           
         C57       1.0000    0.03370   0.03270   0.19919   Biso      1.000     C          -0.136101           
         C58       1.0000    0.95570   0.95194   0.49219   Biso      1.000     C          0.083462  
         C59       1.0000    0.30500   0.79500   0.37465   Biso      1.000     C          0.070375  
         C60       1.0000    0.09690   0.15750   0.22950   Biso      1.000     C          -0.070772           
         C61       1.0000    0.06470   0.93137   0.27798   Biso      1.000     C          0.152439  
         C62       1.0000    0.07220   0.00749   0.26073   Biso      1.000     C          0.003634  
         C63       1.0000    0.66410   0.93910   0.48193   Biso      1.000     C          -0.074866           
         C64       1.0000    0.12040   0.06058   0.30645   Biso      1.000     C          -0.002058           
         C65       1.0000    0.04570   0.10550   0.18491   Biso      1.000     C          -0.082961           
         C66       1.0000    0.06040   0.80266   0.14410   Biso      1.000     C          0.628869  
         C67       1.0000    0.13530   0.84860   0.19592   Biso      1.000     C          -0.1524   
         C68       1.0000    0.13230   0.13591   0.28937   Biso      1.000     C          -0.121449           
         C69       1.0000    0.59280   0.80490   0.35330   Biso      1.000     C          -0.069409           
         C70       1.0000    0.50070   0.72840   0.43670   Biso      1.000     C          -0.070518           
         C71       1.0000    0.43270   0.82422   0.33950   Biso      1.000     C          -0.162088           
         C72       1.0000    0.35450   0.09523   0.42620   Biso      1.000     C          -0.162505           
         C73       1.0000    0.62740   0.75650   0.40120   Biso      1.000     C          -0.102153           
         C74       1.0000    0.64110   0.97490   0.53840   Biso      1.000     C          -0.103669           
         C75       1.0000    0.39470   0.16536   0.46114   Biso      1.000     C          0.637479  
         C76       1.0000    0.77590   0.99770   0.57170   Biso      1.000     C          -0.064559           
         C77       1.0000    0.13860   0.96284   0.38483   Biso      1.000     C          -0.067686           
         C78       1.0000    0.14980   0.03612   0.36874   Biso      1.000     C          0.15494   
         C79       1.0000    0.82010   0.92835   0.45890   Biso      1.000     C          -0.157788           
         C80       1.0000    0.37960   0.93942   0.80645   Biso      1.000     C          -0.002058           
         C81       1.0000    0.39820   0.09125   0.83751   Biso      1.000     C          -0.073288           
         C82       1.0000    0.16040   0.25290   0.92370   Biso      1.000     C          -0.155839           
         C83       1.0000    0.56670   0.01290   0.04968   Biso      1.000     C          -0.162788           
         C84       1.0000    0.46630   0.96730   0.69919   Biso      1.000     C          -0.136101           
         C85       1.0000    0.54430   0.04806   0.99219   Biso      1.000     C          0.083464  
         C86       1.0000    0.19500   0.20500   0.87465   Biso      1.000     C          0.070375  
         C87       1.0000    0.40310   0.84250   0.72950   Biso      1.000     C          -0.070772           
         C88       1.0000    0.43530   0.06863   0.77798   Biso      1.000     C          0.152439  
         C89       1.0000    0.42780   0.99251   0.76073   Biso      1.000     C          0.003633  
         C90       1.0000    0.83590   0.06090   0.98193   Biso      1.000     C          -0.07486  
         C91       1.0000    0.45430   0.89450   0.68491   Biso      1.000     C          -0.082961           
         C92       1.0000    0.72410   0.00230   0.07170   Biso      1.000     C          -0.064565           
         C93       1.0000    0.43960   0.19734   0.64410   Biso      1.000     C          0.628869  
         C94       1.0000    0.36470   0.15140   0.69592   Biso      1.000     C          -0.1524   
         C95       1.0000    0.36770   0.86409   0.78937   Biso      1.000     C          -0.121449           
         C96       1.0000    0.90720   0.19510   0.85330   Biso      1.000     C          -0.069409           
         C97       1.0000    0.99930   0.27160   0.93670   Biso      1.000     C          -0.070518           
         C98       1.0000    0.06730   0.17578   0.83950   Biso      1.000     C          -0.162088           
         C99       1.0000    0.14550   0.90477   0.92620   Biso      1.000     C          -0.162505           
         C100      1.0000    0.87260   0.24350   0.90120   Biso      1.000     C          -0.102153           
         C101      1.0000    0.85890   0.02510   0.03840   Biso      1.000     C          -0.103664           
         C102      1.0000    0.10530   0.83464   0.96114   Biso      1.000     C          0.637479  
         C103      1.0000    0.17990   0.42835   0.04110   Biso      1.000     C          -0.157788           
         C104      1.0000    0.85020   0.53612   0.13126   Biso      1.000     C          0.15494   
         Cd1       1.0000    0.48438   0.78193   0.96306   Biso      1.000     Cd          1.064831  
         Cd2       1.0000    0.01562   0.21807   0.46306   Biso      1.000     Cd          1.064831  
         Cd3       1.0000    0.51562   0.28193   0.53694   Biso      1.000     Cd          1.064831  
         Cd4       1.0000    0.98438   0.71807   0.03694   Biso      1.000     Cd          1.064831  
         H1        1.0000    0.16570   0.40490   0.07960   Biso      1.000     H          0.10293   
         H2        1.0000    0.53600   0.98350   0.55370   Biso      1.000     H          0.101501  
         H3        1.0000    0.74510   0.22750   0.05220   Biso      1.000     H          0.117119  
         H4        1.0000    0.97690   0.50310   0.92710   Biso      1.000     H          0.117892  
         H5        1.0000    0.99980   0.49910   0.33130   Biso      1.000     H          0.116313  
         H6        1.0000    0.89310   0.70710   0.28180   Biso      1.000     H          0.102107  
         H7        1.0000    0.42600   0.42220   0.04070   Biso      1.000     H          0.097702  
         H8        1.0000    0.23920   0.52110   0.88980   Biso      1.000     H          0.109402  
         H9        1.0000    0.03600   0.51650   0.44630   Biso      1.000     H          0.101502  
         H10       1.0000    0.79640   0.38710   0.32220   Biso      1.000     H          0.111913  
         H11       1.0000    0.83570   0.67090   0.18100   Biso      1.000     H          0.118259  
         H12       1.0000    0.32190   0.32490   0.17020   Biso      1.000     H          0.107285  
         H13       1.0000    0.47630   0.19650   0.03010   Biso      1.000     H          0.091728  
         H14       1.0000    0.58930   0.35680   0.19330   Biso      1.000     H          0.115769  
         H15       1.0000    0.98070   0.62130   0.35540   Biso      1.000     H          0.105483  
         H16       1.0000    0.23520   0.75710   0.59040   Biso      1.000     H          0.099399  
         H17       1.0000    0.88730   0.44710   0.54870   Biso      1.000     H          0.106312  
         H18       1.0000    0.61270   0.55290   0.04870   Biso      1.000     H          0.106312  
         H19       1.0000    0.33430   0.59510   0.57960   Biso      1.000     H          0.102931  
         H20       1.0000    0.75490   0.77250   0.55220   Biso      1.000     H          0.117119  
         H21       1.0000    0.52310   0.49690   0.42710   Biso      1.000     H          0.117892  
         H22       1.0000    0.50020   0.50090   0.83130   Biso      1.000     H          0.116313  
         H23       1.0000    0.60690   0.29290   0.78180   Biso      1.000     H          0.102106  
         H24       1.0000    0.07400   0.57780   0.54070   Biso      1.000     H          0.097701  
         H25       1.0000    0.91600   0.40610   0.61280   Biso      1.000     H          0.136359  
         H26       1.0000    0.51930   0.37870   0.85540   Biso      1.000     H          0.105483  
         H27       1.0000    0.70360   0.61290   0.82220   Biso      1.000     H          0.111913  
         H28       1.0000    0.70400   0.68250   0.77790   Biso      1.000     H          0.110489  
         H29       1.0000    0.66430   0.32910   0.68100   Biso      1.000     H          0.11826   
         H30       1.0000    0.17810   0.67510   0.67020   Biso      1.000     H          0.107285  
         H31       1.0000    0.02370   0.80350   0.53010   Biso      1.000     H          0.091728  
         H32       1.0000    0.91070   0.64320   0.69330   Biso      1.000     H          0.115769  
         H33       1.0000    0.26080   0.47890   0.38980   Biso      1.000     H          0.109402  
         H34       1.0000    0.58400   0.59390   0.11280   Biso      1.000     H          0.136359  
         H35       1.0000    0.79600   0.31750   0.27790   Biso      1.000     H          0.110489  
         H36       1.0000    0.46400   0.48350   0.94630   Biso      1.000     H          0.101501  
         H37       1.0000    0.25490   0.72750   0.44780   Biso      1.000     H          0.117119  
         H38       1.0000    0.02310   0.00310   0.57290   Biso      1.000     H          0.117892  
         H39       1.0000    0.00020   0.99910   0.16870   Biso      1.000     H          0.116313  
         H40       1.0000    0.10690   0.20710   0.21820   Biso      1.000     H          0.102107  
         H41       1.0000    0.26480   0.24290   0.09040   Biso      1.000     H          0.099399  
         H42       1.0000    0.01930   0.12130   0.14460   Biso      1.000     H          0.105483  
         H43       1.0000    0.76080   0.02110   0.61020   Biso      1.000     H          0.109402  
         H44       1.0000    0.83430   0.90490   0.42040   Biso      1.000     H          0.10293   
         H45       1.0000    0.20360   0.88710   0.17780   Biso      1.000     H          0.111913  
         H46       1.0000    0.16430   0.17090   0.31900   Biso      1.000     H          0.118259  
         H47       1.0000    0.67810   0.82490   0.32980   Biso      1.000     H          0.107285  
         H48       1.0000    0.52370   0.69650   0.46990   Biso      1.000     H          0.091728  
         H49       1.0000    0.41070   0.85680   0.30670   Biso      1.000     H          0.115769  
         H50       1.0000    0.38730   0.05290   0.45130   Biso      1.000     H          0.106312  
         H51       1.0000    0.41600   0.09390   0.38720   Biso      1.000     H          0.136359  
         H52       1.0000    0.73520   0.74290   0.40960   Biso      1.000     H          0.099398  
         H53       1.0000    0.20400   0.81750   0.22210   Biso      1.000     H          0.110489  
         H54       1.0000    0.96400   0.01650   0.05370   Biso      1.000     H          0.101501  
         H55       1.0000    0.57400   0.92220   0.45930   Biso      1.000     H          0.097702  
         H56       1.0000    0.08400   0.90610   0.88720   Biso      1.000     H          0.136359  
         H57       1.0000    0.66570   0.09510   0.92040   Biso      1.000     H          0.102931  
         H58       1.0000    0.76480   0.25710   0.90960   Biso      1.000     H          0.099399  
         H59       1.0000    0.47690   0.99690   0.07290   Biso      1.000     H          0.117892  
         H60       1.0000    0.49980   0.00090   0.66870   Biso      1.000     H          0.116313  
         H61       1.0000    0.39310   0.79290   0.71820   Biso      1.000     H          0.102107  
         H62       1.0000    0.92600   0.07780   0.95930   Biso      1.000     H          0.097702  
         H63       1.0000    0.48070   0.87870   0.64460   Biso      1.000     H          0.105483  
         H64       1.0000    0.24510   0.27250   0.94780   Biso      1.000     H          0.117119  
         H65       1.0000    0.29640   0.11290   0.67780   Biso      1.000     H          0.111913  
         H66       1.0000    0.29600   0.18250   0.72210   Biso      1.000     H          0.110489  
         H67       1.0000    0.33570   0.82910   0.81900   Biso      1.000     H          0.118259  
         H68       1.0000    0.82190   0.17510   0.82980   Biso      1.000     H          0.107285  
         H69       1.0000    0.97630   0.30350   0.96990   Biso      1.000     H          0.091728  
         H70       1.0000    0.08930   0.14320   0.80670   Biso      1.000     H          0.115769  
         H71       1.0000    0.11270   0.94710   0.95130   Biso      1.000     H          0.106312  
         H72       1.0000    0.73920   0.97890   0.11020   Biso      1.000     H          0.109402  
         O1        1.0000    0.83890   0.27118   0.39173   Biso      1.000     O          -0.60532  
         O2        1.0000    0.46230   0.67009   0.01758   Biso      1.000     O          -0.526776           
         O3        1.0000    0.70880   0.71582   0.03309   Biso      1.000     O          -0.559633           
         O4        1.0000    0.49060   0.11842   0.73330   Biso      1.000     O          -0.209257           
         O5        1.0000    0.31590   0.90969   0.91275   Biso      1.000     O          -0.240837           
         O6        1.0000    0.58780   0.20375   0.63777   Biso      1.000     O          -0.552234           
         O7        1.0000    0.00940   0.88158   0.23330   Biso      1.000     O          -0.209257           
         O8        1.0000    0.96230   0.82991   0.98242   Biso      1.000     O          -0.526776           
         O9        1.0000    0.20880   0.78418   0.96691   Biso      1.000     O          -0.559633           
         O10       1.0000    0.18410   0.09031   0.41275   Biso      1.000     O          -0.240837           
         O11       1.0000    0.91220   0.79625   0.13777   Biso      1.000     O          -0.552234           
         O12       1.0000    0.16110   0.77118   0.10827   Biso      1.000     O          -0.60532  
         O13       1.0000    0.08780   0.29625   0.36223   Biso      1.000     O          -0.552234           
         O14       1.0000    0.33890   0.22882   0.60827   Biso      1.000     O          -0.60532  
         O15       1.0000    0.81590   0.59031   0.08725   Biso      1.000     O          -0.240837           
         O16       1.0000    0.53770   0.17009   0.48242   Biso      1.000     O          -0.526776           
         O17       1.0000    0.79120   0.28418   0.53309   Biso      1.000     O          -0.559633           
         O18       1.0000    0.03770   0.32991   0.51758   Biso      1.000     O          -0.526776           
         O19       1.0000    0.66110   0.72882   0.89173   Biso      1.000     O          -0.60532  
         O20       1.0000    0.41220   0.70375   0.86223   Biso      1.000     O          -0.552234           
         O21       1.0000    0.68410   0.40969   0.58725   Biso      1.000     O          -0.240837           
         O22       1.0000    0.50940   0.61842   0.76670   Biso      1.000     O          -0.209257           
         O23       1.0000    0.99060   0.38158   0.26670   Biso      1.000     O          -0.209257           
         O24       1.0000    0.29120   0.21582   0.46691   Biso      1.000     O          -0.559633           
         S1        1.0000    0.09568   0.81287   0.35628   Biso      1.000     S          -0.026997           
         S2        1.0000    0.16006   0.93648   0.46517   Biso      1.000     S          -0.050038           
         S3        1.0000    0.40432   0.18713   0.85628   Biso      1.000     S          -0.026997           
         S4        1.0000    0.33994   0.06352   0.96517   Biso      1.000     S          -0.050039           
         S5        1.0000    0.90432   0.31287   0.14372   Biso      1.000     S          -0.026997           
         S6        1.0000    0.83994   0.43648   0.03483   Biso      1.000     S          -0.050038           
         S7        1.0000    0.59568   0.68713   0.64372   Biso      1.000     S          -0.026998           
         S8        1.0000    0.66006   0.56352   0.53483   Biso      1.000     S          -0.050039 