
##########################################################################
#               Crystallographic Information Format file
#               Produced by PyCifRW module
#
#  This is a CIF file.  CIF has been adopted by the International
#  Union of Crystallography as the standard for data archiving and
#  transmission.
#
#  For information on this file format, follow the CIF links at
#  http://www.iucr.org
##########################################################################

data_image0

_cell_length_a                          9.9493
_cell_length_b                          15.2347
_cell_length_c                          10.8891
_cell_angle_alpha                       90
_cell_angle_beta                        107.253
_cell_angle_gamma                       90
_symmetry_space_group_name_H-M          'P 1'
_symmetry_int_tables_number             1
loop_
  _symmetry_equiv_pos_as_xyz
         'x, y, z' 
loop_
  _atom_site_label
  _atom_site_occupancy
  _atom_site_fract_x
  _atom_site_fract_y
  _atom_site_fract_z
  _atom_site_thermal_displace_type
  _atom_site_B_iso_or_equiv
  _atom_site_type_symbol
  _atom_site_charge
         C1        1.0000    0.65210   0.15860   0.47830   Biso      1.000     C          0.5766439999999999  
         C2        1.0000    0.40920   0.96220   0.39360   Biso      1.000     C          -0.144049           
         C3        1.0000    0.91730   0.96370   0.32690   Biso      1.000     C          0.19011   
         C4        1.0000    0.52720   0.95870   0.62150   Biso      1.000     C          -0.021176           
         C5        1.0000    0.56710   0.91760   0.75090   Biso      1.000     C          0.596757  
         C6        1.0000    0.42650   0.63750   0.66020   Biso      1.000     C          0.113864  
         C7        1.0000    0.49010   0.59670   0.77600   Biso      1.000     C          -0.19072999999999998          
         C8        1.0000    0.56760   0.07920   0.48930   Biso      1.000     C          -0.0329   
         C9        1.0000    0.41730   0.53630   0.82690   Biso      1.000     C          0.190115  
         C10       1.0000    0.28150   0.51700   0.75190   Biso      1.000     C          -0.167731           
         C11       1.0000    0.90920   0.53780   0.89360   Biso      1.000     C          -0.144049           
         C12       1.0000    0.99010   0.90330   0.27600   Biso      1.000     C          -0.190729           
         C13       1.0000    0.47120   0.49390   0.95340   Biso      1.000     C          -0.033482           
         C14       1.0000    0.92650   0.86250   0.16020   Biso      1.000     C          0.11386600000000001           
         C15       1.0000    0.50990   0.40330   0.22400   Biso      1.000     C          -0.19073199999999998          
         C16       1.0000    0.06710   0.58240   0.25090   Biso      1.000     C          0.596757  
         C17       1.0000    0.57350   0.36250   0.33980   Biso      1.000     C          0.11386700000000001           
         C18       1.0000    0.43290   0.08240   0.24910   Biso      1.000     C          0.596757  
         C19       1.0000    0.47280   0.04130   0.37850   Biso      1.000     C          -0.021176           
         C20       1.0000    0.84790   0.65860   0.02170   Biso      1.000     C          0.5766439999999999  
         C21       1.0000    0.93240   0.57920   0.01070   Biso      1.000     C          -0.032897           
         C22       1.0000    0.22560   0.55990   0.64030   Biso      1.000     C          0.11018199999999999           
         C23       1.0000    0.34790   0.84140   0.52170   Biso      1.000     C          0.5766439999999999  
         C24       1.0000    0.43240   0.92080   0.51070   Biso      1.000     C          -0.032898000000000004         
         C25       1.0000    0.71850   0.48300   0.24810   Biso      1.000     C          -0.167735           
         C26       1.0000    0.15210   0.34140   0.97830   Biso      1.000     C          0.5766439999999999  
         C27       1.0000    0.06760   0.42080   0.98930   Biso      1.000     C          -0.0329   
         C28       1.0000    0.09080   0.46220   0.10640   Biso      1.000     C          -0.144046           
         C29       1.0000    0.59080   0.03780   0.60640   Biso      1.000     C          -0.144047           
         C30       1.0000    0.97280   0.45870   0.87850   Biso      1.000     C          -0.021176           
         C31       1.0000    0.93290   0.41760   0.74910   Biso      1.000     C          0.596757  
         C32       1.0000    0.07350   0.13750   0.83980   Biso      1.000     C          0.113864  
         C33       1.0000    0.00990   0.09670   0.72400   Biso      1.000     C          -0.190729           
         C34       1.0000    0.58270   0.46370   0.17310   Biso      1.000     C          0.1901    
         C35       1.0000    0.08270   0.03630   0.67310   Biso      1.000     C          0.19009700000000002           
         C36       1.0000    0.97120   0.00610   0.45340   Biso      1.000     C          -0.033482           
         C37       1.0000    0.27440   0.05990   0.85970   Biso      1.000     C          0.11016300000000001           
         C38       1.0000    0.72560   0.94010   0.14030   Biso      1.000     C          0.110161  
         C39       1.0000    0.02880   0.99390   0.54660   Biso      1.000     C          -0.033313999999999996         
         C40       1.0000    0.52880   0.50610   0.04660   Biso      1.000     C          -0.033313           
         C41       1.0000    0.77440   0.44010   0.35970   Biso      1.000     C          0.11018299999999999           
         C42       1.0000    0.78150   0.98300   0.25190   Biso      1.000     C          -0.167711           
         C43       1.0000    0.21850   0.01700   0.74810   Biso      1.000     C          -0.167713           
         C44       1.0000    0.02720   0.54130   0.12150   Biso      1.000     C          -0.021176           
         H1        1.0000    0.63260   0.95210   0.09450   Biso      1.000     H          0.101698  
         H2        1.0000    0.97670   0.82090   0.12930   Biso      1.000     H          0.107591  
         H3        1.0000    0.65200   0.06390   0.67870   Biso      1.000     H          0.125396  
         H4        1.0000    0.08300   0.89000   0.32050   Biso      1.000     H          0.129631  
         H5        1.0000    0.72920   0.02550   0.27870   Biso      1.000     H          0.139543  
         H6        1.0000    0.58300   0.61000   0.82050   Biso      1.000     H          0.129631  
         H7        1.0000    0.52330   0.32090   0.37070   Biso      1.000     H          0.107591  
         H8        1.0000    0.41700   0.39000   0.17950   Biso      1.000     H          0.129631  
         H9        1.0000    0.13260   0.54790   0.59450   Biso      1.000     H          0.10169700000000001           
         H10       1.0000    0.22920   0.47450   0.77870   Biso      1.000     H          0.139544  
         H11       1.0000    0.47670   0.67910   0.62930   Biso      1.000     H          0.107591  
         H12       1.0000    0.34800   0.93610   0.32130   Biso      1.000     H          0.125396  
         H13       1.0000    0.77080   0.52550   0.22130   Biso      1.000     H          0.139544  
         H14       1.0000    0.86740   0.45210   0.40550   Biso      1.000     H          0.10169700000000001           
         H15       1.0000    0.36740   0.04790   0.90550   Biso      1.000     H          0.101698  
         H16       1.0000    0.27080   0.97450   0.72130   Biso      1.000     H          0.139542  
         H17       1.0000    0.91700   0.11000   0.67950   Biso      1.000     H          0.129631  
         H18       1.0000    0.02330   0.17910   0.87070   Biso      1.000     H          0.107591  
         H19       1.0000    0.15200   0.43610   0.17870   Biso      1.000     H          0.125396  
         H20       1.0000    0.84800   0.56390   0.82130   Biso      1.000     H          0.125396  
         N1        1.0000    0.29490   0.61860   0.59130   Biso      1.000     N          -0.23873699999999998          
         N2        1.0000    0.70510   0.38140   0.40870   Biso      1.000     N          -0.238738           
         N3        1.0000    0.20510   0.11860   0.90870   Biso      1.000     N          -0.238735           
         N4        1.0000    0.79490   0.88140   0.09130   Biso      1.000     N          -0.238735           
         O1        1.0000    0.31570   0.79050   0.42510   Biso      1.000     O          -0.55208  
         O2        1.0000    0.19190   0.33150   0.88250   Biso      1.000     O          -0.569415           
         O3        1.0000    0.87860   0.34120   0.74050   Biso      1.000     O          -0.5498149999999999           
         O4        1.0000    0.94400   0.45940   0.65630   Biso      1.000     O          -0.551733           
         O5        1.0000    0.69190   0.16850   0.38250   Biso      1.000     O          -0.569415           
         O6        1.0000    0.30810   0.83150   0.61750   Biso      1.000     O          -0.5694170000000001           
         O7        1.0000    0.62140   0.84120   0.75950   Biso      1.000     O          -0.5498149999999999           
         O8        1.0000    0.55600   0.95940   0.84370   Biso      1.000     O          -0.551732           
         O9        1.0000    0.44400   0.04060   0.15630   Biso      1.000     O          -0.551732           
         O10       1.0000    0.37860   0.15880   0.24050   Biso      1.000     O          -0.549816           
         O11       1.0000    0.81570   0.70950   0.92510   Biso      1.000     O          -0.55208  
         O12       1.0000    0.80810   0.66850   0.11750   Biso      1.000     O          -0.5694170000000001           
         O13       1.0000    0.12140   0.65880   0.25950   Biso      1.000     O          -0.5498149999999999           
         O14       1.0000    0.05600   0.54060   0.34370   Biso      1.000     O          -0.551732           
         O15       1.0000    0.18430   0.29050   0.07490   Biso      1.000     O          -0.552081           
         O16       1.0000    0.68430   0.20950   0.57490   Biso      1.000     O          -0.55208  
         Zn1       1.0000    0.81091   0.30570   0.55955   Biso      1.000     Zn          0.860351  
         Zn2       1.0000    0.68909   0.80570   0.94045   Biso      1.000     Zn          0.860351  
         Zn3       1.0000    0.18909   0.69430   0.44045   Biso      1.000     Zn          0.860351  
         Zn4       1.0000    0.31091   0.19430   0.05955   Biso      1.000     Zn          0.860351 