
##########################################################################
#               Crystallographic Information Format file
#               Produced by PyCifRW module
#
#  This is a CIF file.  CIF has been adopted by the International
#  Union of Crystallography as the standard for data archiving and
#  transmission.
#
#  For information on this file format, follow the CIF links at
#  http://www.iucr.org
##########################################################################

data_image0

_cell_length_a                          11.7554
_cell_length_b                          14.4359
_cell_length_c                          14.6933
_cell_angle_alpha                       111.146
_cell_angle_beta                        112.698
_cell_angle_gamma                       93.215
_symmetry_space_group_name_H-M          'P 1'
_symmetry_int_tables_number             1
loop_
  _symmetry_equiv_pos_as_xyz
         'x, y, z' 
loop_
  _atom_site_label
  _atom_site_occupancy
  _atom_site_fract_x
  _atom_site_fract_y
  _atom_site_fract_z
  _atom_site_thermal_displace_type
  _atom_site_B_iso_or_equiv
  _atom_site_type_symbol
  _atom_site_charge
         C1        1.0000    0.52500   0.39700   0.51000   Biso      1.000     C          -0.06941  
         C2        1.0000    0.37700   0.78200   0.73300   Biso      1.000     C          -0.132517           
         C3        1.0000    0.46000   0.80700   0.84000   Biso      1.000     C          -0.006313           
         C4        1.0000    0.45000   0.75800   0.90400   Biso      1.000     C          -0.12200599999999999          
         C5        1.0000    0.35200   0.67100   0.84900   Biso      1.000     C          0.129038  
         C6        1.0000    0.31600   0.61300   0.90400   Biso      1.000     C          0.611599  
         C7        1.0000    0.42000   0.44100   0.73300   Biso      1.000     C          0.614976  
         C8        1.0000    0.49500   0.44000   0.67000   Biso      1.000     C          0.105932  
         C9        1.0000    0.44300   0.40500   0.55800   Biso      1.000     C          -0.138902           
         C10       1.0000    0.65400   0.43200   0.57800   Biso      1.000     C          -0.105601           
         C11       1.0000    0.70300   0.45600   0.68800   Biso      1.000     C          0.109323  
         C12       1.0000    0.84200   0.47300   0.75500   Biso      1.000     C          0.678912  
         C13       1.0000    0.15800   0.52700   0.24500   Biso      1.000     C          0.678912  
         C14       1.0000    0.55700   0.59500   0.44200   Biso      1.000     C          -0.138904           
         C15       1.0000    0.50500   0.56000   0.33000   Biso      1.000     C          0.10593499999999999           
         C16       1.0000    0.58000   0.55900   0.26700   Biso      1.000     C          0.614978  
         C17       1.0000    0.68400   0.38700   0.09600   Biso      1.000     C          0.611599  
         C18       1.0000    0.82200   0.35300   0.42800   Biso      1.000     C          0.602468  
         C19       1.0000    0.71800   0.30500   0.31500   Biso      1.000     C          0.14068699999999998           
         C20       1.0000    0.62300   0.21800   0.26700   Biso      1.000     C          -0.13251500000000002          
         C21       1.0000    0.54000   0.19300   0.16000   Biso      1.000     C          -0.006314           
         C22       1.0000    0.55000   0.24200   0.09600   Biso      1.000     C          -0.12200599999999999          
         C23       1.0000    0.28200   0.69500   0.68500   Biso      1.000     C          0.140689  
         C24       1.0000    0.17800   0.64700   0.57200   Biso      1.000     C          0.602467  
         C25       1.0000    0.64800   0.32900   0.15100   Biso      1.000     C          0.129038  
         C26       1.0000    0.29700   0.54400   0.31200   Biso      1.000     C          0.109324  
         C27       1.0000    0.34600   0.56800   0.42200   Biso      1.000     C          -0.105602           
         C28       1.0000    0.47500   0.60300   0.49000   Biso      1.000     C          -0.069405           
         Ce1       1.0000    0.91440   0.52717   0.34810   Biso      1.000     Ce          2.11673   
         Ce2       1.0000    0.28600   0.52395   0.06460   Biso      1.000     Ce          2.042568  
         Ce3       1.0000    0.08560   0.47283   0.65190   Biso      1.000     Ce          2.116727  
         Ce4       1.0000    0.71400   0.47605   0.93540   Biso      1.000     Ce          2.042565  
         H1        1.0000    0.49520   0.36930   0.43540   Biso      1.000     H          0.101466  
         H2        1.0000    0.49580   0.21870   0.02270   Biso      1.000     H          0.124511  
         H3        1.0000    0.35540   0.38690   0.51620   Biso      1.000     H          0.128445  
         H4        1.0000    0.64460   0.61310   0.48380   Biso      1.000     H          0.128445  
         H5        1.0000    0.50420   0.78130   0.97730   Biso      1.000     H          0.124511  
         H6        1.0000    0.52840   0.86140   0.87310   Biso      1.000     H          0.117998  
         H7        1.0000    0.38550   0.82070   0.69610   Biso      1.000     H          0.13889300000000002           
         H8        1.0000    0.50480   0.63070   0.56460   Biso      1.000     H          0.101466  
         H9        1.0000    0.61450   0.17930   0.30390   Biso      1.000     H          0.13889300000000002           
         H10       1.0000    0.29040   0.55980   0.45180   Biso      1.000     H          0.12895399999999999           
         H11       1.0000    0.47160   0.13860   0.12690   Biso      1.000     H          0.117998  
         H12       1.0000    0.70960   0.44020   0.54820   Biso      1.000     H          0.128955  
         N1        1.0000    0.73200   0.36200   0.26000   Biso      1.000     N          -0.397933           
         N2        1.0000    0.37700   0.54100   0.26200   Biso      1.000     N          -0.439532           
         N3        1.0000    0.26800   0.63800   0.74000   Biso      1.000     N          -0.397933           
         N4        1.0000    0.62300   0.45900   0.73800   Biso      1.000     N          -0.439535           
         O1        1.0000    0.87700   0.80200   0.73300   Biso      1.000     O          -0.778883           
         O2        1.0000    0.04600   0.21400   0.91800   Biso      1.000     O          -0.876633           
         O3        1.0000    0.05500   0.03200   0.79200   Biso      1.000     O          -0.7227060000000001           
         O4        1.0000    0.70000   0.03400   0.00800   Biso      1.000     O          -0.77993  
         O5        1.0000    0.82400   0.21400   0.05400   Biso      1.000     O          -0.892977           
         O6        1.0000    0.66600   0.96300   0.81300   Biso      1.000     O          -0.786771           
         O7        1.0000    0.97700   0.33800   0.27500   Biso      1.000     O          -0.814499           
         O8        1.0000    0.08300   0.28900   0.13300   Biso      1.000     O          -0.881094           
         O9        1.0000    0.81900   0.96200   0.71400   Biso      1.000     O          -0.762043           
         O10       1.0000    0.74800   0.86000   0.02500   Biso      1.000     O          -0.807643           
         O11       1.0000    0.71200   0.78100   0.81200   Biso      1.000     O          -0.844297           
         O12       1.0000    0.73100   0.65400   0.92100   Biso      1.000     O          -0.856967           
         O13       1.0000    0.88500   0.44000   0.46900   Biso      1.000     O          -0.743967           
         O14       1.0000    0.83400   0.30200   0.48000   Biso      1.000     O          -0.5827859999999999           
         O15       1.0000    0.77500   0.46100   0.14600   Biso      1.000     O          -0.721427           
         O16       1.0000    0.60800   0.36400   0.99700   Biso      1.000     O          -0.66577  
         O17       1.0000    0.69900   0.57300   0.31800   Biso      1.000     O          -0.681032           
         O18       1.0000    0.52300   0.54300   0.16700   Biso      1.000     O          -0.6222439999999999           
         O19       1.0000    0.13000   0.51900   0.15100   Biso      1.000     O          -0.699358           
         O20       1.0000    0.08600   0.53000   0.28400   Biso      1.000     O          -0.641161           
         O21       1.0000    0.89100   0.13300   0.20800   Biso      1.000     O          -0.768733           
         O22       1.0000    0.80600   0.13900   0.85500   Biso      1.000     O          -0.801089           
         O23       1.0000    0.25200   0.14000   0.97500   Biso      1.000     O          -0.807643           
         O24       1.0000    0.91300   0.87900   0.89900   Biso      1.000     O          -0.776288           
         O25       1.0000    0.28800   0.21900   0.18800   Biso      1.000     O          -0.844298           
         O26       1.0000    0.26900   0.34600   0.07900   Biso      1.000     O          -0.856967           
         O27       1.0000    0.11500   0.56000   0.53100   Biso      1.000     O          -0.743967           
         O28       1.0000    0.16600   0.69800   0.52000   Biso      1.000     O          -0.5827859999999999           
         O29       1.0000    0.22500   0.53900   0.85400   Biso      1.000     O          -0.721426           
         O30       1.0000    0.39200   0.63600   0.00300   Biso      1.000     O          -0.665772           
         O31       1.0000    0.30100   0.42700   0.68200   Biso      1.000     O          -0.681032           
         O32       1.0000    0.47700   0.45700   0.83300   Biso      1.000     O          -0.622242           
         O33       1.0000    0.87000   0.48100   0.84900   Biso      1.000     O          -0.699357           
         O34       1.0000    0.91400   0.47000   0.71600   Biso      1.000     O          -0.641161           
         O35       1.0000    0.91700   0.71100   0.86700   Biso      1.000     O          -0.881094           
         O36       1.0000    0.10900   0.86700   0.79200   Biso      1.000     O          -0.768733           
         O37       1.0000    0.12300   0.19800   0.26700   Biso      1.000     O          -0.778884           
         O38       1.0000    0.17600   0.78600   0.94600   Biso      1.000     O          -0.892976           
         O39       1.0000    0.30000   0.96600   0.99200   Biso      1.000     O          -0.779928           
         O40       1.0000    0.33400   0.03700   0.18700   Biso      1.000     O          -0.786771           
         O41       1.0000    0.95400   0.78600   0.08200   Biso      1.000     O          -0.876632           
         O42       1.0000    0.94500   0.96800   0.20800   Biso      1.000     O          -0.722707           
         O43       1.0000    0.18100   0.03800   0.28600   Biso      1.000     O          -0.762042           
         O44       1.0000    0.19400   0.86100   0.14500   Biso      1.000     O          -0.801089           
         O45       1.0000    0.95600   0.94800   0.05700   Biso      1.000     O          -0.582982           
         O46       1.0000    0.08700   0.12100   0.10100   Biso      1.000     O          -0.776287           
         O47       1.0000    0.10400   0.93900   0.96600   Biso      1.000     O          -0.621788           
         O48       1.0000    0.10900   0.99100   0.09700   Biso      1.000     O          -0.412263           
         O49       1.0000    0.02300   0.66200   0.72500   Biso      1.000     O          -0.814499           
         O50       1.0000    0.89100   0.00900   0.90300   Biso      1.000     O          -0.412263           
         O51       1.0000    0.89600   0.06100   0.03400   Biso      1.000     O          -0.621786           
         O52       1.0000    0.04400   0.05200   0.94300   Biso      1.000     O          -0.5829840000000001           
         Si1       1.0000    0.00000   0.00000   0.00000   Biso      1.000     Si          1.9472759999999998  
         W1        1.0000    0.07366   0.90259   0.19997   Biso      1.000     W          1.60756   
         W2        1.0000    0.79691   0.99912   0.12736   Biso      1.000     W          1.634005  
         W3        1.0000    0.98110   0.23191   0.18294   Biso      1.000     W          2.509346  
         W4        1.0000    0.74153   0.86293   0.74021   Biso      1.000     W          1.6528479999999999  
         W5        1.0000    0.72141   0.09177   0.92426   Biso      1.000     W          1.7701200000000001  
         W6        1.0000    0.18801   0.23282   0.05962   Biso      1.000     W          2.4975240000000003  
         W7        1.0000    0.20309   0.00088   0.87264   Biso      1.000     W          1.634005  
         W8        1.0000    0.01890   0.76809   0.81706   Biso      1.000     W          2.509345  
         W9        1.0000    0.25847   0.13707   0.25979   Biso      1.000     W          1.6528509999999998  
         W10       1.0000    0.27859   0.90823   0.07574   Biso      1.000     W          1.770116  
         W11       1.0000    0.81199   0.76718   0.94038   Biso      1.000     W          2.497525  
         W12       1.0000    0.92634   0.09741   0.80003   Biso      1.000     W          1.60756 