
##########################################################################
#               Crystallographic Information Format file
#               Produced by PyCifRW module
#
#  This is a CIF file.  CIF has been adopted by the International
#  Union of Crystallography as the standard for data archiving and
#  transmission.
#
#  For information on this file format, follow the CIF links at
#  http://www.iucr.org
##########################################################################

data_image0

_cell_length_a                          9.809
_cell_length_b                          11.595
_cell_length_c                          12.065
_cell_angle_alpha                       90
_cell_angle_beta                        90
_cell_angle_gamma                       90
_symmetry_space_group_name_H-M          'P 1'
_symmetry_int_tables_number             1
loop_
  _symmetry_equiv_pos_as_xyz
         'x, y, z' 
loop_
  _atom_site_label
  _atom_site_occupancy
  _atom_site_fract_x
  _atom_site_fract_y
  _atom_site_fract_z
  _atom_site_thermal_displace_type
  _atom_site_B_iso_or_equiv
  _atom_site_type_symbol
  _atom_site_charge
         C1        1.0000    0.89800   0.65820   0.36300   Biso      1.000     C          0.302795  
         C2        1.0000    0.28880   0.00950   0.79990   Biso      1.000     C          0.081934  
         C3        1.0000    0.30430   0.04100   0.67680   Biso      1.000     C          0.271942  
         C4        1.0000    0.48570   0.27970   0.91980   Biso      1.000     C          0.546509  
         C5        1.0000    0.60200   0.34180   0.86300   Biso      1.000     C          0.302792  
         C6        1.0000    0.11780   0.18950   0.25970   Biso      1.000     C          -0.35535  
         C7        1.0000    0.58050   0.47280   0.87670   Biso      1.000     C          -0.361637           
         C8        1.0000    0.23140   0.12000   0.31560   Biso      1.000     C          0.19786600000000001           
         C9        1.0000    0.41950   0.97280   0.62330   Biso      1.000     C          -0.361638           
         C10       1.0000    0.21120   0.99050   0.29990   Biso      1.000     C          0.081933  
         C11       1.0000    0.69570   0.54100   0.82320   Biso      1.000     C          0.271936  
         C12       1.0000    0.19570   0.95900   0.17680   Biso      1.000     C          0.271935  
         C13       1.0000    0.01430   0.72030   0.41980   Biso      1.000     C          0.54652   
         C14       1.0000    0.26860   0.88000   0.81560   Biso      1.000     C          0.197863  
         C15       1.0000    0.38220   0.81050   0.75970   Biso      1.000     C          -0.355356           
         C16       1.0000    0.10200   0.15820   0.13700   Biso      1.000     C          0.302791  
         C17       1.0000    0.98570   0.22030   0.08020   Biso      1.000     C          0.54651   
         C18       1.0000    0.91950   0.52720   0.37670   Biso      1.000     C          -0.361639           
         C19       1.0000    0.39800   0.84180   0.63700   Biso      1.000     C          0.302794  
         C20       1.0000    0.71120   0.50950   0.70010   Biso      1.000     C          0.08193500000000001           
         C21       1.0000    0.80430   0.45900   0.32320   Biso      1.000     C          0.27194   
         C22       1.0000    0.51430   0.77970   0.58020   Biso      1.000     C          0.54652   
         C23       1.0000    0.78880   0.49050   0.20010   Biso      1.000     C          0.081932  
         C24       1.0000    0.73140   0.38000   0.68440   Biso      1.000     C          0.197865  
         C25       1.0000    0.76860   0.62000   0.18440   Biso      1.000     C          0.197863  
         C26       1.0000    0.61780   0.31050   0.74030   Biso      1.000     C          -0.35535500000000003          
         C27       1.0000    0.88220   0.68950   0.24030   Biso      1.000     C          -0.355352           
         C28       1.0000    0.08050   0.02720   0.12330   Biso      1.000     C          -0.36164  
         Cu1       1.0000    0.18999   0.25687   0.92741   Biso      1.000     Cu          0.378658  
         Cu2       1.0000    0.68999   0.24313   0.07259   Biso      1.000     Cu          0.37867   
         Cu3       1.0000    0.31001   0.74313   0.42741   Biso      1.000     Cu          0.37873   
         Cu4       1.0000    0.81001   0.75687   0.57259   Biso      1.000     Cu          0.37871900000000003           
         H1        1.0000    0.46760   0.82500   0.79770   Biso      1.000     H          0.135991  
         H2        1.0000    0.11030   0.02540   0.58720   Biso      1.000     H          0.44680600000000004           
         H3        1.0000    0.10830   0.07640   0.80830   Biso      1.000     H          0.38277100000000003           
         H4        1.0000    0.68070   0.64250   0.21640   Biso      1.000     H          0.05934   
         H5        1.0000    0.28920   0.91130   0.96770   Biso      1.000     H          0.359889  
         H6        1.0000    0.87320   0.46860   0.16210   Biso      1.000     H          0.07987799999999999           
         H7        1.0000    0.82290   0.37630   0.33020   Biso      1.000     H          0.060536  
         H8        1.0000    0.92430   0.50840   0.45490   Biso      1.000     H          0.14904   
         H9        1.0000    0.00550   0.50530   0.34290   Biso      1.000     H          0.148978  
         H10       1.0000    0.60830   0.42360   0.19170   Biso      1.000     H          0.38276   
         H11       1.0000    0.18070   0.85750   0.78360   Biso      1.000     H          0.059347000000000004          
         H12       1.0000    0.50550   0.99470   0.65710   Biso      1.000     H          0.148983  
         H13       1.0000    0.61030   0.47460   0.41280   Biso      1.000     H          0.446792  
         H14       1.0000    0.68710   0.68320   0.43310   Biso      1.000     H          0.416023  
         H15       1.0000    0.42430   0.99160   0.54510   Biso      1.000     H          0.149042  
         H16       1.0000    0.32290   0.12370   0.66980   Biso      1.000     H          0.060537  
         H17       1.0000    0.36200   0.72890   0.76610   Biso      1.000     H          0.144986  
         H18       1.0000    0.37320   0.03140   0.83790   Biso      1.000     H          0.07987899999999999           
         H19       1.0000    0.78920   0.58870   0.03230   Biso      1.000     H          0.359887  
         H20       1.0000    0.18710   0.81680   0.56690   Biso      1.000     H          0.416022  
         H21       1.0000    0.63800   0.22890   0.73390   Biso      1.000     H          0.144977  
         H22       1.0000    0.86200   0.77110   0.23390   Biso      1.000     H          0.144976  
         H23       1.0000    0.03240   0.17500   0.29770   Biso      1.000     H          0.135971  
         H24       1.0000    0.17710   0.87630   0.16980   Biso      1.000     H          0.060529999999999994          
         H25       1.0000    0.07570   0.00840   0.04510   Biso      1.000     H          0.149033  
         H26       1.0000    0.99450   0.00530   0.15710   Biso      1.000     H          0.148963  
         H27       1.0000    0.13800   0.27110   0.26610   Biso      1.000     H          0.14496199999999998           
         H28       1.0000    0.21080   0.08870   0.46770   Biso      1.000     H          0.359881  
         H29       1.0000    0.39170   0.92360   0.30830   Biso      1.000     H          0.382766  
         H30       1.0000    0.81290   0.31680   0.93310   Biso      1.000     H          0.41601800000000005           
         H31       1.0000    0.88970   0.52540   0.91280   Biso      1.000     H          0.446796  
         H32       1.0000    0.38970   0.97460   0.08720   Biso      1.000     H          0.44678100000000004           
         H33       1.0000    0.31930   0.14250   0.28360   Biso      1.000     H          0.059324  
         H34       1.0000    0.89170   0.57640   0.69170   Biso      1.000     H          0.382774  
         H35       1.0000    0.31290   0.18320   0.06690   Biso      1.000     H          0.41601800000000005           
         H36       1.0000    0.96760   0.67500   0.20230   Biso      1.000     H          0.135987  
         H37       1.0000    0.53240   0.32500   0.70230   Biso      1.000     H          0.135975  
         H38       1.0000    0.71080   0.41130   0.53230   Biso      1.000     H          0.359883  
         H39       1.0000    0.81930   0.35750   0.71640   Biso      1.000     H          0.059333000000000004          
         H40       1.0000    0.12680   0.96860   0.33790   Biso      1.000     H          0.079873  
         H41       1.0000    0.67710   0.62370   0.83020   Biso      1.000     H          0.060534000000000004          
         H42       1.0000    0.57570   0.49160   0.95490   Biso      1.000     H          0.149033  
         H43       1.0000    0.49450   0.49470   0.84290   Biso      1.000     H          0.14896700000000002           
         H44       1.0000    0.62680   0.53140   0.66210   Biso      1.000     H          0.079876  
         O1        1.0000    0.32140   0.92700   0.34970   Biso      1.000     O          -0.528848           
         O2        1.0000    0.23140   0.14720   0.43170   Biso      1.000     O          -0.565046           
         O3        1.0000    0.22630   0.19450   0.07860   Biso      1.000     O          -0.6229899999999999           
         O4        1.0000    0.87300   0.22330   0.13000   Biso      1.000     O          -0.5286   
         O5        1.0000    0.00450   0.26070   0.98400   Biso      1.000     O          -0.52193  
         O6        1.0000    0.76860   0.64720   0.06830   Biso      1.000     O          -0.565028           
         O7        1.0000    0.32260   0.98550   0.12390   Biso      1.000     O          -0.679542           
         O8        1.0000    0.27370   0.80550   0.57860   Biso      1.000     O          -0.6229859999999999           
         O9        1.0000    0.67740   0.48550   0.37610   Biso      1.000     O          -0.679542           
         O10       1.0000    0.77370   0.69450   0.42140   Biso      1.000     O          -0.6229859999999999           
         O11       1.0000    0.12700   0.72330   0.37000   Biso      1.000     O          -0.5285890000000001           
         O12       1.0000    0.62700   0.77670   0.63000   Biso      1.000     O          -0.5285920000000001           
         O13       1.0000    0.50450   0.23930   0.01600   Biso      1.000     O          -0.521925           
         O14       1.0000    0.37300   0.27670   0.87000   Biso      1.000     O          -0.5286   
         O15       1.0000    0.72630   0.30550   0.92140   Biso      1.000     O          -0.622993           
         O16       1.0000    0.82260   0.51450   0.87610   Biso      1.000     O          -0.6795439999999999           
         O17       1.0000    0.82140   0.57300   0.65030   Biso      1.000     O          -0.528846           
         O18       1.0000    0.73140   0.35280   0.56830   Biso      1.000     O          -0.5650350000000001           
         O19       1.0000    0.26860   0.85280   0.93170   Biso      1.000     O          -0.565026           
         O20       1.0000    0.17860   0.07300   0.84970   Biso      1.000     O          -0.528837           
         O21       1.0000    0.17740   0.01450   0.62390   Biso      1.000     O          -0.679545           
         O22       1.0000    0.49550   0.73930   0.48400   Biso      1.000     O          -0.5219199999999999           
         O23       1.0000    0.67860   0.42700   0.15030   Biso      1.000     O          -0.528836           
         O24       1.0000    0.99550   0.76070   0.51600   Biso      1.000     O          -0.5219239999999999 