
##########################################################################
#               Crystallographic Information Format file
#               Produced by PyCifRW module
#
#  This is a CIF file.  CIF has been adopted by the International
#  Union of Crystallography as the standard for data archiving and
#  transmission.
#
#  For information on this file format, follow the CIF links at
#  http://www.iucr.org
##########################################################################

data_image0

_cell_length_a                          13.996
_cell_length_b                          14.6219
_cell_length_c                          18.5851
_cell_angle_alpha                       69.1245
_cell_angle_beta                        67.8805
_cell_angle_gamma                       61.4061
_symmetry_space_group_name_H-M          'P 1'
_symmetry_int_tables_number             1
loop_
  _symmetry_equiv_pos_as_xyz
         'x, y, z' 
loop_
  _atom_site_label
  _atom_site_occupancy
  _atom_site_fract_x
  _atom_site_fract_y
  _atom_site_fract_z
  _atom_site_thermal_displace_type
  _atom_site_B_iso_or_equiv
  _atom_site_type_symbol
  _atom_site_charge
         C1        1.0000    0.15360   0.19370   0.44310   Biso      1.000     C          -0.043971           
         C2        1.0000    0.79300   0.36740   0.45220   Biso      1.000     C          -0.190895           
         C3        1.0000    0.85360   0.27670   0.42050   Biso      1.000     C          0.116564  
         C4        1.0000    0.62920   0.60090   0.60190   Biso      1.000     C          0.119823  
         C5        1.0000    0.69010   0.51480   0.56640   Biso      1.000     C          -0.187576           
         C6        1.0000    0.63610   0.46240   0.55660   Biso      1.000     C          0.111976  
         C7        1.0000    0.52080   0.50150   0.58410   Biso      1.000     C          -0.201699           
         C8        1.0000    0.46460   0.59160   0.61620   Biso      1.000     C          0.097376  
         C9        1.0000    0.45680   0.58480   0.83220   Biso      1.000     C          0.598072  
         C10       1.0000    0.38230   0.54900   0.81820   Biso      1.000     C          -0.081351           
         C11       1.0000    0.43330   0.45300   0.79340   Biso      1.000     C          -0.117046           
         C12       1.0000    0.37160   0.42020   0.77220   Biso      1.000     C          -0.110704           
         C13       1.0000    0.25810   0.48320   0.77760   Biso      1.000     C          -0.105146           
         C14       1.0000    0.20510   0.57560   0.80720   Biso      1.000     C          -0.047573           
         C15       1.0000    0.26750   0.61130   0.82750   Biso      1.000     C          0.048406  
         C16       1.0000    0.08000   0.63380   0.81520   Biso      1.000     C          0.585085  
         C17       1.0000    0.18630   0.83690   0.73090   Biso      1.000     C          0.619447  
         C18       1.0000    0.17800   0.81270   0.81810   Biso      1.000     C          -0.071517           
         C19       1.0000    0.70270   0.36880   0.51920   Biso      1.000     C          0.107404  
         C20       1.0000    0.13040   0.90030   0.85310   Biso      1.000     C          -0.103013           
         C21       1.0000    0.67300   0.28310   0.54630   Biso      1.000     C          -0.195069           
         C22       1.0000    0.17090   0.08390   0.49710   Biso      1.000     C          0.577796  
         C23       1.0000    0.77130   0.98520   0.93360   Biso      1.000     C          -0.188061           
         C24       1.0000    0.65510   0.03760   0.94340   Biso      1.000     C          0.112772  
         C25       1.0000    0.60640   0.99850   0.91590   Biso      1.000     C          -0.205361           
         C26       1.0000    0.67240   0.90840   0.88380   Biso      1.000     C          0.099334  
         C27       1.0000    0.12620   0.08480   0.33220   Biso      1.000     C          0.596494  
         C28       1.0000    0.25050   0.04900   0.31820   Biso      1.000     C          -0.078916           
         C29       1.0000    0.32030   0.95300   0.29340   Biso      1.000     C          -0.112813           
         C30       1.0000    0.48110   0.98320   0.27760   Biso      1.000     C          -0.108008           
         C31       1.0000    0.41210   0.07560   0.30720   Biso      1.000     C          -0.049266           
         C32       1.0000    0.29370   0.11130   0.32750   Biso      1.000     C          0.047829  
         C33       1.0000    0.47100   0.13380   0.31520   Biso      1.000     C          0.587517  
         C34       1.0000    0.24590   0.33690   0.23090   Biso      1.000     C          0.613895  
         C35       1.0000    0.19120   0.31270   0.31810   Biso      1.000     C          -0.065111           
         C36       1.0000    0.11620   0.40030   0.35310   Biso      1.000     C          -0.107701           
         C37       1.0000    0.05810   0.38540   0.43180   Biso      1.000     C          -0.116042           
         C38       1.0000    0.07540   0.28250   0.47590   Biso      1.000     C          -0.114184           
         C39       1.0000    0.21290   0.20790   0.36290   Biso      1.000     C          0.041487  
         C40       1.0000    0.74000   0.19600   0.51080   Biso      1.000     C          0.126739  
         C41       1.0000    0.83200   0.89910   0.89810   Biso      1.000     C          0.11915   
         C42       1.0000    0.12470   0.88540   0.93180   Biso      1.000     C          -0.117742           
         C43       1.0000    0.20960   0.69370   0.94310   Biso      1.000     C          -0.044231           
         C44       1.0000    0.80880   0.68730   0.68190   Biso      1.000     C          -0.065111           
         C45       1.0000    0.88380   0.59970   0.64690   Biso      1.000     C          -0.107702           
         C46       1.0000    0.94190   0.61460   0.56820   Biso      1.000     C          -0.116042           
         C47       1.0000    0.92460   0.71750   0.52410   Biso      1.000     C          -0.114184           
         C48       1.0000    0.84640   0.80630   0.55690   Biso      1.000     C          -0.043971           
         C49       1.0000    0.78710   0.79210   0.63710   Biso      1.000     C          0.041487  
         C50       1.0000    0.82910   0.91610   0.50290   Biso      1.000     C          0.577796  
         C51       1.0000    0.26000   0.80400   0.48920   Biso      1.000     C          0.126739  
         C52       1.0000    0.32700   0.71690   0.45370   Biso      1.000     C          -0.195074           
         C53       1.0000    0.29730   0.63120   0.48080   Biso      1.000     C          0.107408  
         C54       1.0000    0.20700   0.63260   0.54780   Biso      1.000     C          -0.190896           
         C55       1.0000    0.14640   0.72330   0.57950   Biso      1.000     C          0.116564  
         C56       1.0000    0.37080   0.39910   0.39810   Biso      1.000     C          0.119823  
         C57       1.0000    0.30990   0.48520   0.43360   Biso      1.000     C          -0.187576           
         C58       1.0000    0.36390   0.53760   0.44340   Biso      1.000     C          0.111976  
         C59       1.0000    0.47920   0.49850   0.41590   Biso      1.000     C          -0.201699           
         C60       1.0000    0.53540   0.40840   0.38380   Biso      1.000     C          0.097376  
         C61       1.0000    0.75410   0.66310   0.76910   Biso      1.000     C          0.613895  
         C62       1.0000    0.16620   0.78250   0.97590   Biso      1.000     C          -0.111204           
         C63       1.0000    0.52900   0.86620   0.68480   Biso      1.000     C          0.587517  
         C64       1.0000    0.58790   0.92440   0.69280   Biso      1.000     C          -0.049266           
         C65       1.0000    0.21630   0.70790   0.86290   Biso      1.000     C          0.041882  
         C66       1.0000    0.24810   0.58390   0.99710   Biso      1.000     C          0.577229  
         C67       1.0000    0.55320   0.69600   0.01080   Biso      1.000     C          0.126474  
         C68       1.0000    0.49760   0.78310   0.04630   Biso      1.000     C          -0.197106           
         C69       1.0000    0.40930   0.86880   0.01920   Biso      1.000     C          0.106182  
         C70       1.0000    0.38740   0.86740   0.95220   Biso      1.000     C          -0.186716           
         C71       1.0000    0.44920   0.77670   0.92050   Biso      1.000     C          0.115529  
         C72       1.0000    0.16800   0.10090   0.10190   Biso      1.000     C          0.119149  
         C73       1.0000    0.22870   0.01480   0.06640   Biso      1.000     C          -0.18806  
         C74       1.0000    0.34490   0.96240   0.05660   Biso      1.000     C          0.112772  
         C75       1.0000    0.39360   0.00150   0.08410   Biso      1.000     C          -0.205361           
         C76       1.0000    0.32760   0.09160   0.11620   Biso      1.000     C          0.099334  
         C77       1.0000    0.87380   0.91520   0.66780   Biso      1.000     C          0.596494  
         C78       1.0000    0.74950   0.95100   0.68180   Biso      1.000     C          -0.078916           
         C79       1.0000    0.67970   0.04700   0.70660   Biso      1.000     C          -0.112813           
         C80       1.0000    0.56400   0.07980   0.72780   Biso      1.000     C          -0.112789           
         C81       1.0000    0.51890   0.01680   0.72240   Biso      1.000     C          -0.108008           
         C82       1.0000    0.70630   0.88870   0.67250   Biso      1.000     C          0.047829  
         C83       1.0000    0.55080   0.22330   0.07950   Biso      1.000     C          0.115529  
         C84       1.0000    0.43600   0.92020   0.27220   Biso      1.000     C          -0.112789           
         C85       1.0000    0.59070   0.13120   0.98080   Biso      1.000     C          0.10618   
         C86       1.0000    0.54320   0.41520   0.16780   Biso      1.000     C          0.598072  
         C87       1.0000    0.61260   0.13260   0.04780   Biso      1.000     C          -0.186716           
         C88       1.0000    0.61770   0.45100   0.18180   Biso      1.000     C          -0.081351           
         C89       1.0000    0.56670   0.54700   0.20660   Biso      1.000     C          -0.117046           
         C90       1.0000    0.62840   0.57980   0.22780   Biso      1.000     C          -0.110704           
         C91       1.0000    0.79490   0.42440   0.19280   Biso      1.000     C          -0.047573           
         C92       1.0000    0.73250   0.38870   0.17250   Biso      1.000     C          0.048406  
         C93       1.0000    0.92000   0.36620   0.18480   Biso      1.000     C          0.585085  
         C94       1.0000    0.81370   0.16310   0.26910   Biso      1.000     C          0.619447  
         C95       1.0000    0.74190   0.51680   0.22240   Biso      1.000     C          -0.105146           
         C96       1.0000    0.86960   0.09970   0.14690   Biso      1.000     C          -0.103013           
         C97       1.0000    0.87530   0.11460   0.06820   Biso      1.000     C          -0.117742           
         C98       1.0000    0.83380   0.21750   0.02410   Biso      1.000     C          -0.111204           
         C99       1.0000    0.79040   0.30630   0.05690   Biso      1.000     C          -0.04423  
         C100      1.0000    0.78370   0.29210   0.13710   Biso      1.000     C          0.041882  
         C101      1.0000    0.75190   0.41610   0.00290   Biso      1.000     C          0.577229  
         C102      1.0000    0.44680   0.30400   0.98920   Biso      1.000     C          0.126473  
         C103      1.0000    0.50240   0.21690   0.95370   Biso      1.000     C          -0.197104           
         C104      1.0000    0.82200   0.18730   0.18190   Biso      1.000     C          -0.071517           
         H1        1.0000    0.48100   0.46750   0.58130   Biso      1.000     H          0.123486  
         H2        1.0000    0.55840   0.96350   0.26130   Biso      1.000     H          0.120039  
         H3        1.0000    0.10570   0.46900   0.32300   Biso      1.000     H          0.120157  
         H4        1.0000    0.00790   0.44360   0.45500   Biso      1.000     H          0.101764  
         H5        1.0000    0.03410   0.27230   0.52850   Biso      1.000     H          0.11591   
         H6        1.0000    0.66750   0.63320   0.60880   Biso      1.000     H          0.112008  
         H7        1.0000    0.60930   0.28350   0.58750   Biso      1.000     H          0.130971  
         H8        1.0000    0.81220   0.42610   0.42930   Biso      1.000     H          0.135222  
         H9        1.0000    0.91460   0.27550   0.37670   Biso      1.000     H          0.103382  
         H10       1.0000    0.48280   0.85700   0.25460   Biso      1.000     H          0.101998  
         H11       1.0000    0.72120   0.13690   0.53150   Biso      1.000     H          0.096696  
         H12       1.0000    0.28910   0.91080   0.29100   Biso      1.000     H          0.113044  
         H13       1.0000    0.90650   0.05640   0.04500   Biso      1.000     H          0.101283  
         H14       1.0000    0.52980   0.03250   0.91870   Biso      1.000     H          0.125176  
         H15       1.0000    0.80790   0.00870   0.95130   Biso      1.000     H          0.132395  
         H16       1.0000    0.90950   0.86680   0.89120   Biso      1.000     H          0.111455  
         H17       1.0000    0.56680   0.22450   0.12330   Biso      1.000     H          0.102898  
         H18       1.0000    0.66760   0.07390   0.07070   Biso      1.000     H          0.133158  
         H19       1.0000    0.48030   0.21650   0.91250   Biso      1.000     H          0.132736  
         H20       1.0000    0.38960   0.36310   0.96850   Biso      1.000     H          0.097941  
         H21       1.0000    0.83490   0.22770   0.97150   Biso      1.000     H          0.11525   
         H22       1.0000    0.38650   0.61980   0.63100   Biso      1.000     H          0.098077  
         H23       1.0000    0.89770   0.03100   0.17700   Biso      1.000     H          0.118733  
         H24       1.0000    0.78320   0.53650   0.23870   Biso      1.000     H          0.117369  
         H25       1.0000    0.59440   0.64300   0.24540   Biso      1.000     H          0.101548  
         H26       1.0000    0.49090   0.58920   0.20900   Biso      1.000     H          0.115092  
         H27       1.0000    0.63730   0.88020   0.86900   Biso      1.000     H          0.098432  
         H28       1.0000    0.50910   0.41080   0.79100   Biso      1.000     H          0.115092  
         H29       1.0000    0.76790   0.49130   0.54870   Biso      1.000     H          0.131675  
         H30       1.0000    0.21680   0.46350   0.76130   Biso      1.000     H          0.117369  
         H31       1.0000    0.40560   0.35700   0.75460   Biso      1.000     H          0.101548  
         H32       1.0000    0.61350   0.38020   0.36900   Biso      1.000     H          0.098077  
         H33       1.0000    0.51900   0.53250   0.41870   Biso      1.000     H          0.123486  
         H34       1.0000    0.23210   0.50870   0.45130   Biso      1.000     H          0.131675  
         H35       1.0000    0.33250   0.36680   0.39120   Biso      1.000     H          0.112008  
         H36       1.0000    0.18780   0.57390   0.57070   Biso      1.000     H          0.135222  
         H37       1.0000    0.39070   0.71650   0.41250   Biso      1.000     H          0.130972  
         H38       1.0000    0.27880   0.86310   0.46850   Biso      1.000     H          0.096696  
         H39       1.0000    0.96590   0.72770   0.47150   Biso      1.000     H          0.11591   
         H40       1.0000    0.99210   0.55640   0.54500   Biso      1.000     H          0.101764  
         H41       1.0000    0.89430   0.53100   0.67700   Biso      1.000     H          0.120158  
         H42       1.0000    0.44160   0.03650   0.73870   Biso      1.000     H          0.120039  
         H43       1.0000    0.08540   0.72450   0.62330   Biso      1.000     H          0.103382  
         H44       1.0000    0.71090   0.08920   0.70900   Biso      1.000     H          0.113044  
         H45       1.0000    0.51720   0.14300   0.74540   Biso      1.000     H          0.101998  
         H46       1.0000    0.10230   0.96900   0.82300   Biso      1.000     H          0.118733  
         H47       1.0000    0.09350   0.94360   0.95500   Biso      1.000     H          0.101283  
         H48       1.0000    0.16510   0.77230   0.02850   Biso      1.000     H          0.115251  
         H49       1.0000    0.51970   0.78350   0.08750   Biso      1.000     H          0.132736  
         H50       1.0000    0.61040   0.63690   0.03150   Biso      1.000     H          0.097941  
         H51       1.0000    0.43320   0.77550   0.87670   Biso      1.000     H          0.102898  
         H52       1.0000    0.09050   0.13320   0.10880   Biso      1.000     H          0.111455  
         H53       1.0000    0.19210   0.99130   0.04870   Biso      1.000     H          0.132395  
         H54       1.0000    0.47020   0.96750   0.08130   Biso      1.000     H          0.125176  
         H55       1.0000    0.36270   0.11980   0.13100   Biso      1.000     H          0.098432  
         H56       1.0000    0.33240   0.92610   0.92930   Biso      1.000     H          0.133158  
         N1        1.0000    0.21600   0.13960   0.12700   Biso      1.000     N          -0.214942           
         N2        1.0000    0.78400   0.86040   0.87300   Biso      1.000     N          -0.214942           
         N3        1.0000    0.53090   0.69090   0.95010   Biso      1.000     N          -0.203052           
         N4        1.0000    0.51740   0.63960   0.62700   Biso      1.000     N          -0.214486           
         N5        1.0000    0.82810   0.19090   0.45010   Biso      1.000     N          -0.20319  
         N6        1.0000    0.46910   0.30910   0.04990   Biso      1.000     N          -0.203052           
         N7        1.0000    0.48260   0.36040   0.37300   Biso      1.000     N          -0.214486           
         N8        1.0000    0.17190   0.80910   0.54990   Biso      1.000     N          -0.20319  
         O1        1.0000    0.03500   0.60930   0.78270   Biso      1.000     O          -0.543292           
         O2        1.0000    0.27773   0.79274   0.68380   Biso      1.000     O          -0.578711           
         O3        1.0000    0.45881   0.67408   0.79570   Biso      1.000     O          -0.561089           
         O4        1.0000    0.51510   0.52120   0.88120   Biso      1.000     O          -0.514531           
         O5        1.0000    0.07820   0.07680   0.54300   Biso      1.000     O          -0.576179           
         O6        1.0000    0.41680   0.20350   0.35490   Biso      1.000     O          -0.544308           
         O7        1.0000    0.09796   0.90538   0.70910   Biso      1.000     O          -0.517615           
         O8        1.0000    0.26460   0.01210   0.49390   Biso      1.000     O          -0.546369           
         O9        1.0000    0.22940   0.51210   0.99390   Biso      1.000     O          -0.546025           
         O10       1.0000    0.58320   0.79650   0.64510   Biso      1.000     O          -0.544308           
         O11       1.0000    0.42700   0.89070   0.71730   Biso      1.000     O          -0.546094           
         O12       1.0000    0.71244   0.59462   0.79090   Biso      1.000     O          -0.516528           
         O13       1.0000    0.75427   0.70726   0.81620   Biso      1.000     O          -0.576377           
         O14       1.0000    0.92859   0.82592   0.70430   Biso      1.000     O          -0.561427           
         O15       1.0000    0.91750   0.97880   0.61880   Biso      1.000     O          -0.513305           
         O16       1.0000    0.30200   0.57680   0.04300   Biso      1.000     O          -0.575066           
         O17       1.0000    0.57300   0.10930   0.28270   Biso      1.000     O          -0.546094           
         O18       1.0000    0.02480   0.70350   0.85490   Biso      1.000     O          -0.545234           
         O19       1.0000    0.28756   0.40538   0.20910   Biso      1.000     O          -0.516528           
         O20       1.0000    0.92180   0.92320   0.45700   Biso      1.000     O          -0.576179           
         O21       1.0000    0.07141   0.17408   0.29570   Biso      1.000     O          -0.561427           
         O22       1.0000    0.73540   0.98790   0.50610   Biso      1.000     O          -0.546369           
         O23       1.0000    0.24573   0.29274   0.18380   Biso      1.000     O          -0.576377           
         O24       1.0000    0.54119   0.32592   0.20430   Biso      1.000     O          -0.561089           
         O25       1.0000    0.72227   0.20726   0.31620   Biso      1.000     O          -0.578711           
         O26       1.0000    0.90204   0.09462   0.29090   Biso      1.000     O          -0.517615           
         O27       1.0000    0.48490   0.47880   0.11880   Biso      1.000     O          -0.514531           
         O28       1.0000    0.97520   0.29650   0.14510   Biso      1.000     O          -0.545234           
         O29       1.0000    0.77060   0.48790   0.00610   Biso      1.000     O          -0.546025           
         O30       1.0000    0.69800   0.42320   0.95700   Biso      1.000     O          -0.575066           
         O31       1.0000    0.08250   0.02120   0.38120   Biso      1.000     O          -0.513305           
         O32       1.0000    0.96500   0.39070   0.21730   Biso      1.000     O          -0.543292           
         Zn1       1.0000    0.88106   0.73608   0.81568   Biso      1.000     Zn          0.870334  
         Zn2       1.0000    0.08127   0.93628   0.60158   Biso      1.000     Zn          0.862478  
         Zn3       1.0000    0.43282   0.76392   0.68432   Biso      1.000     Zn          0.870595  
         Zn4       1.0000    0.61913   0.56372   0.89842   Biso      1.000     Zn          0.862868  
         Zn5       1.0000    0.11894   0.26392   0.18432   Biso      1.000     Zn          0.870334  
         Zn6       1.0000    0.91873   0.06372   0.39842   Biso      1.000     Zn          0.862479  
         Zn7       1.0000    0.56718   0.23608   0.31568   Biso      1.000     Zn          0.870595  
         Zn8       1.0000    0.38087   0.43628   0.10158   Biso      1.000     Zn          0.862867 