
##########################################################################
#               Crystallographic Information Format file
#               Produced by PyCifRW module
#
#  This is a CIF file.  CIF has been adopted by the International
#  Union of Crystallography as the standard for data archiving and
#  transmission.
#
#  For information on this file format, follow the CIF links at
#  http://www.iucr.org
##########################################################################

data_image0

_cell_length_a                          7.7389
_cell_length_b                          7.7389
_cell_length_c                          27.1545
_cell_angle_alpha                       90
_cell_angle_beta                        90
_cell_angle_gamma                       120
_symmetry_space_group_name_H-M          'P 1'
_symmetry_int_tables_number             1
loop_
  _symmetry_equiv_pos_as_xyz
         'x, y, z' 
loop_
  _atom_site_label
  _atom_site_occupancy
  _atom_site_fract_x
  _atom_site_fract_y
  _atom_site_fract_z
  _atom_site_thermal_displace_type
  _atom_site_B_iso_or_equiv
  _atom_site_type_symbol
  _atom_site_charge
         C1        1.0000    0.49520   0.74760   0.58333   Biso      1.000     C          -0.560286           
         C2        1.0000    0.38440   0.72600   0.63063   Biso      1.000     C          0.730391  
         C3        1.0000    0.72600   0.34160   0.46396   Biso      1.000     C          0.730811  
         C4        1.0000    0.27400   0.65840   0.96396   Biso      1.000     C          0.730532  
         C5        1.0000    0.38440   0.65840   0.53604   Biso      1.000     C          0.7308859999999999  
         C6        1.0000    0.61560   0.27400   0.13063   Biso      1.000     C          0.729967  
         C7        1.0000    0.27400   0.61560   0.20270   Biso      1.000     C          0.730487  
         C8        1.0000    0.34160   0.72600   0.86937   Biso      1.000     C          0.730388  
         C9        1.0000    0.65840   0.38440   0.79730   Biso      1.000     C          0.730355  
         C10       1.0000    0.61560   0.34160   0.03604   Biso      1.000     C          0.73038   
         C11       1.0000    0.34160   0.61560   0.29730   Biso      1.000     C          0.729946  
         C12       1.0000    0.74760   0.25240   0.41667   Biso      1.000     C          -0.559804           
         C13       1.0000    0.25240   0.50480   0.25000   Biso      1.000     C          -0.559778           
         C14       1.0000    0.65840   0.27400   0.36937   Biso      1.000     C          0.729799  
         C15       1.0000    0.50480   0.25240   0.08333   Biso      1.000     C          -0.5595100000000001           
         C16       1.0000    0.25240   0.74760   0.91667   Biso      1.000     C          -0.560146           
         C17       1.0000    0.72600   0.38440   0.70270   Biso      1.000     C          0.730928  
         C18       1.0000    0.74760   0.49520   0.75000   Biso      1.000     C          -0.560573           
         H1        1.0000    0.11400   0.42800   0.25767   Biso      1.000     H          0.153529  
         H2        1.0000    0.31400   0.42800   0.24233   Biso      1.000     H          0.153367  
         H3        1.0000    0.68600   0.57200   0.74233   Biso      1.000     H          0.153772  
         H4        1.0000    0.11400   0.68600   0.90900   Biso      1.000     H          0.153726  
         H5        1.0000    0.42800   0.31400   0.09100   Biso      1.000     H          0.154697  
         H6        1.0000    0.57200   0.88600   0.57567   Biso      1.000     H          0.153789  
         H7        1.0000    0.42800   0.11400   0.07567   Biso      1.000     H          0.155364  
         H8        1.0000    0.31400   0.88600   0.92433   Biso      1.000     H          0.153589  
         H9        1.0000    0.88600   0.57200   0.75767   Biso      1.000     H          0.153855  
         H10       1.0000    0.88600   0.31400   0.40900   Biso      1.000     H          0.154474  
         H11       1.0000    0.68600   0.11400   0.42433   Biso      1.000     H          0.15454500000000002           
         H12       1.0000    0.57200   0.68600   0.59100   Biso      1.000     H          0.153853  
         O1        1.0000    0.68000   0.49370   0.83378   Biso      1.000     O          -0.604047           
         O2        1.0000    0.62500   0.42690   0.46631   Biso      1.000     O          -0.6332720000000001           
         O3        1.0000    0.80190   0.37500   0.13298   Biso      1.000     O          -0.63139  
         O4        1.0000    0.50630   0.18630   0.16711   Biso      1.000     O          -0.602731           
         O5        1.0000    0.81370   0.32000   0.50044   Biso      1.000     O          -0.603122           
         O6        1.0000    0.57310   0.19810   0.79965   Biso      1.000     O          -0.630392           
         O7        1.0000    0.57310   0.37500   0.36702   Biso      1.000     O          -0.6302180000000001           
         O8        1.0000    0.42690   0.80190   0.29965   Biso      1.000     O          -0.630602           
         O9        1.0000    0.68000   0.18630   0.33289   Biso      1.000     O          -0.604675           
         O10       1.0000    0.62500   0.19810   0.70035   Biso      1.000     O          -0.631209           
         O11       1.0000    0.81370   0.49370   0.66622   Biso      1.000     O          -0.604015           
         O12       1.0000    0.80190   0.42690   0.03369   Biso      1.000     O          -0.633406           
         O13       1.0000    0.50630   0.32000   0.99956   Biso      1.000     O          -0.6032649999999999           
         O14       1.0000    0.32000   0.50630   0.33378   Biso      1.000     O          -0.606597           
         O15       1.0000    0.42690   0.62500   0.86702   Biso      1.000     O          -0.629955           
         O16       1.0000    0.32000   0.81370   0.83289   Biso      1.000     O          -0.604221           
         O17       1.0000    0.49370   0.81370   0.66711   Biso      1.000     O          -0.603468           
         O18       1.0000    0.18630   0.50630   0.16622   Biso      1.000     O          -0.607433           
         O19       1.0000    0.19810   0.57310   0.53369   Biso      1.000     O          -0.63192  
         O20       1.0000    0.49370   0.68000   0.49956   Biso      1.000     O          -0.60446  
         O21       1.0000    0.37500   0.57310   0.96631   Biso      1.000     O          -0.632142           
         O22       1.0000    0.18630   0.68000   0.00044   Biso      1.000     O          -0.605885           
         O23       1.0000    0.19810   0.62500   0.63298   Biso      1.000     O          -0.6302810000000001           
         O24       1.0000    0.37500   0.80190   0.20035   Biso      1.000     O          -0.632734           
         U1        1.0000    0.45237   0.90475   0.75000   Biso      1.000     U          1.261002  
         U2        1.0000    0.09525   0.54762   0.08333   Biso      1.000     U          1.2738129999999999  
         U3        1.0000    0.54762   0.45237   0.91667   Biso      1.000     U          1.258656  
         U4        1.0000    0.54762   0.09525   0.25000   Biso      1.000     U          1.257634  
         U5        1.0000    0.90475   0.45237   0.58333   Biso      1.000     U          1.259399  
         U6        1.0000    0.45237   0.54762   0.41667   Biso      1.000     U          1.2676 