
##########################################################################
#               Crystallographic Information Format file
#               Produced by PyCifRW module
#
#  This is a CIF file.  CIF has been adopted by the International
#  Union of Crystallography as the standard for data archiving and
#  transmission.
#
#  For information on this file format, follow the CIF links at
#  http://www.iucr.org
##########################################################################

data_image0

_cell_length_a                          7.413
_cell_length_b                          23.889
_cell_length_c                          7.467
_cell_angle_alpha                       90
_cell_angle_beta                        92.224
_cell_angle_gamma                       90
_symmetry_space_group_name_H-M          'P 1'
_symmetry_int_tables_number             1
loop_
  _symmetry_equiv_pos_as_xyz
         'x, y, z' 
loop_
  _atom_site_label
  _atom_site_occupancy
  _atom_site_fract_x
  _atom_site_fract_y
  _atom_site_fract_z
  _atom_site_thermal_displace_type
  _atom_site_B_iso_or_equiv
  _atom_site_type_symbol
  _atom_site_charge
         C1        1.0000    0.11330   0.30374   0.18030   Biso      1.000     C          0.693776  
         C2        1.0000    0.98830   0.47860   0.96910   Biso      1.000     C          -0.113479           
         C3        1.0000    0.07860   0.33958   0.34500   Biso      1.000     C          -0.528701           
         C4        1.0000    0.88670   0.69626   0.81970   Biso      1.000     C          0.693754  
         C5        1.0000    0.42140   0.83958   0.15500   Biso      1.000     C          -0.528697           
         C6        1.0000    0.92140   0.66042   0.65500   Biso      1.000     C          -0.528696           
         C7        1.0000    0.75940   0.85050   0.65820   Biso      1.000     C          0.110876  
         C8        1.0000    0.51170   0.97860   0.53090   Biso      1.000     C          -0.113462           
         C9        1.0000    0.01170   0.52140   0.03090   Biso      1.000     C          -0.113258           
         C10       1.0000    0.32510   0.55860   0.97420   Biso      1.000     C          -0.21547  
         C11       1.0000    0.25940   0.64950   0.15820   Biso      1.000     C          0.110876  
         C12       1.0000    0.62860   0.89050   0.63410   Biso      1.000     C          -0.188755           
         C13       1.0000    0.12860   0.60950   0.13410   Biso      1.000     C          -0.188758           
         C14       1.0000    0.95570   0.90010   0.50530   Biso      1.000     C          0.084573  
         C15       1.0000    0.15780   0.56290   0.04390   Biso      1.000     C          0.171788  
         C16       1.0000    0.88540   0.69209   0.47920   Biso      1.000     C          0.695309  
         C17       1.0000    0.82510   0.94140   0.47420   Biso      1.000     C          -0.21547  
         C18       1.0000    0.74060   0.35050   0.84180   Biso      1.000     C          0.110865  
         C19       1.0000    0.87140   0.39050   0.86590   Biso      1.000     C          -0.188764           
         C20       1.0000    0.61330   0.19626   0.68030   Biso      1.000     C          0.693777  
         C21       1.0000    0.38540   0.80791   0.97920   Biso      1.000     C          0.695309  
         C22       1.0000    0.57860   0.16042   0.84500   Biso      1.000     C          -0.528704           
         C23       1.0000    0.24060   0.14950   0.34180   Biso      1.000     C          0.110871  
         C24       1.0000    0.38670   0.80374   0.31970   Biso      1.000     C          0.693754  
         C25       1.0000    0.61460   0.19209   0.02080   Biso      1.000     C          0.695334  
         C26       1.0000    0.37140   0.10950   0.36590   Biso      1.000     C          -0.188767           
         C27       1.0000    0.11460   0.30791   0.52080   Biso      1.000     C          0.695334  
         C28       1.0000    0.34220   0.06290   0.45610   Biso      1.000     C          0.171795  
         C29       1.0000    0.17490   0.05860   0.52580   Biso      1.000     C          -0.215464           
         C30       1.0000    0.54430   0.40010   0.99470   Biso      1.000     C          0.084571  
         C31       1.0000    0.48830   0.02140   0.46910   Biso      1.000     C          -0.113272           
         C32       1.0000    0.67490   0.44140   0.02580   Biso      1.000     C          -0.215473           
         C33       1.0000    0.04430   0.09990   0.49470   Biso      1.000     C          0.08457   
         C34       1.0000    0.84220   0.43710   0.95610   Biso      1.000     C          0.171816  
         C35       1.0000    0.45570   0.59990   0.00530   Biso      1.000     C          0.084574  
         C36       1.0000    0.65780   0.93710   0.54390   Biso      1.000     C          0.171806  
         H1        1.0000    0.56890   0.59520   0.95810   Biso      1.000     H          0.090828  
         H2        1.0000    0.41060   0.96630   0.58950   Biso      1.000     H          0.099568  
         H3        1.0000    0.01620   0.61530   0.18220   Biso      1.000     H          0.1235    
         H4        1.0000    0.23000   0.68170   0.22070   Biso      1.000     H          0.093497  
         H5        1.0000    0.91060   0.53370   0.08950   Biso      1.000     H          0.099557  
         H6        1.0000    0.15540   0.37240   0.34360   Biso      1.000     H          0.164054  
         H7        1.0000    0.95410   0.35220   0.33910   Biso      1.000     H          0.170386  
         H8        1.0000    0.93110   0.09520   0.54190   Biso      1.000     H          0.090832  
         H9        1.0000    0.14760   0.02760   0.59500   Biso      1.000     H          0.120921  
         H10       1.0000    0.48380   0.11530   0.31780   Biso      1.000     H          0.123499  
         H11       1.0000    0.27000   0.18170   0.27930   Biso      1.000     H          0.093493  
         H12       1.0000    0.35240   0.52760   0.90500   Biso      1.000     H          0.120915  
         H13       1.0000    0.54590   0.85220   0.16090   Biso      1.000     H          0.170384  
         H14       1.0000    0.58940   0.03370   0.41050   Biso      1.000     H          0.099555  
         H15       1.0000    0.77000   0.31830   0.77930   Biso      1.000     H          0.093492  
         H16       1.0000    0.64760   0.47240   0.09500   Biso      1.000     H          0.120922  
         H17       1.0000    0.65540   0.12760   0.84360   Biso      1.000     H          0.164056  
         H18       1.0000    0.43110   0.40480   0.04190   Biso      1.000     H          0.09083   
         H19       1.0000    0.34460   0.87240   0.15640   Biso      1.000     H          0.164055  
         H20       1.0000    0.45410   0.14780   0.83910   Biso      1.000     H          0.170388  
         H21       1.0000    0.73000   0.81830   0.72070   Biso      1.000     H          0.093496  
         H22       1.0000    0.51620   0.88470   0.68220   Biso      1.000     H          0.123502  
         H23       1.0000    0.85240   0.97240   0.40500   Biso      1.000     H          0.120911  
         H24       1.0000    0.06890   0.90480   0.45810   Biso      1.000     H          0.090829  
         H25       1.0000    0.08940   0.46630   0.91050   Biso      1.000     H          0.099566  
         H26       1.0000    0.84460   0.62760   0.65640   Biso      1.000     H          0.164059  
         H27       1.0000    0.98380   0.38470   0.81780   Biso      1.000     H          0.123499  
         H28       1.0000    0.04590   0.64780   0.66090   Biso      1.000     H          0.170387  
         Mn1       1.0000    0.36503   0.28479   0.85513   Biso      1.000     Mn          0.978197  
         Mn2       1.0000    0.86503   0.21521   0.35513   Biso      1.000     Mn          0.97826   
         Mn3       1.0000    0.13497   0.78479   0.64487   Biso      1.000     Mn          0.978098  
         Mn4       1.0000    0.63497   0.71521   0.14487   Biso      1.000     Mn          0.978161  
         N1        1.0000    0.57550   0.35443   0.90090   Biso      1.000     N          -0.2151   
         N2        1.0000    0.42450   0.64557   0.09910   Biso      1.000     N          -0.215086           
         N3        1.0000    0.07550   0.14557   0.40090   Biso      1.000     N          -0.215109           
         N4        1.0000    0.92450   0.85443   0.59910   Biso      1.000     N          -0.215078           
         O1        1.0000    0.27840   0.82287   0.42910   Biso      1.000     O          -0.569008           
         O2        1.0000    0.72160   0.17713   0.57090   Biso      1.000     O          -0.569026           
         O3        1.0000    0.52420   0.23563   0.04830   Biso      1.000     O          -0.599994           
         O4        1.0000    0.73230   0.17264   0.12920   Biso      1.000     O          -0.57363  
         O5        1.0000    0.22160   0.32287   0.07090   Biso      1.000     O          -0.569016           
         O6        1.0000    0.23230   0.32736   0.62920   Biso      1.000     O          -0.57362  
         O7        1.0000    0.96820   0.74248   0.83790   Biso      1.000     O          -0.593225           
         O8        1.0000    0.77840   0.67713   0.92910   Biso      1.000     O          -0.569017           
         O9        1.0000    0.03180   0.25752   0.16210   Biso      1.000     O          -0.593244           
         O10       1.0000    0.76770   0.67264   0.37080   Biso      1.000     O          -0.573621           
         O11       1.0000    0.97580   0.73563   0.45170   Biso      1.000     O          -0.599987           
         O12       1.0000    0.46820   0.75752   0.33790   Biso      1.000     O          -0.593232           
         O13       1.0000    0.47580   0.76437   0.95170   Biso      1.000     O          -0.599994           
         O14       1.0000    0.26770   0.82736   0.87080   Biso      1.000     O          -0.573611           
         O15       1.0000    0.02420   0.26437   0.54830   Biso      1.000     O          -0.600006           
         O16       1.0000    0.53180   0.24248   0.66210   Biso      1.000     O          -0.593233 