
##########################################################################
#               Crystallographic Information Format file
#               Produced by PyCifRW module
#
#  This is a CIF file.  CIF has been adopted by the International
#  Union of Crystallography as the standard for data archiving and
#  transmission.
#
#  For information on this file format, follow the CIF links at
#  http://www.iucr.org
##########################################################################

data_image0

_cell_length_a                          10.7622
_cell_length_b                          11.3038
_cell_length_c                          26.224
_cell_angle_alpha                       85.086
_cell_angle_beta                        88.092
_cell_angle_gamma                       62.225
_symmetry_space_group_name_H-M          'P 1'
_symmetry_int_tables_number             1
loop_
  _symmetry_equiv_pos_as_xyz
         'x, y, z' 
loop_
  _atom_site_label
  _atom_site_occupancy
  _atom_site_fract_x
  _atom_site_fract_y
  _atom_site_fract_z
  _atom_site_thermal_displace_type
  _atom_site_B_iso_or_equiv
  _atom_site_type_symbol
  _atom_site_charge
         C1        1.0000    0.23100   0.53520   0.45660   Biso      1.000     C          0.6039439999999999  
         C2        1.0000    0.57870   0.80000   0.74050   Biso      1.000     C          -0.105038           
         C3        1.0000    0.61200   0.77750   0.79190   Biso      1.000     C          -0.037891           
         C4        1.0000    0.62910   0.88210   0.81820   Biso      1.000     C          0.696317  
         C5        1.0000    0.53140   0.55340   0.95470   Biso      1.000     C          -0.105206           
         C6        1.0000    0.47300   0.56620   0.04390   Biso      1.000     C          -0.110346           
         C7        1.0000    0.50520   0.61950   0.99760   Biso      1.000     C          -0.022685           
         C8        1.0000    0.51200   0.75300   0.99870   Biso      1.000     C          0.652381  
         C9        1.0000    0.08000   0.42660   0.46220   Biso      1.000     C          -0.117612           
         C10       1.0000    0.03700   0.58750   0.51870   Biso      1.000     C          -0.1064   
         C11       1.0000    0.11660   0.51430   0.48020   Biso      1.000     C          -0.003015           
         C12       1.0000    0.41700   0.03880   0.45650   Biso      1.000     C          -0.121099           
         C13       1.0000    0.56200   0.70680   0.71690   Biso      1.000     C          -0.069477           
         C14       1.0000    0.55600   0.86840   0.52050   Biso      1.000     C          -0.110043           
         C15       1.0000    0.43780   0.81070   0.45330   Biso      1.000     C          0.585002  
         C16       1.0000    0.12590   0.76640   0.31660   Biso      1.000     C          0.6831430000000001  
         C17       1.0000    0.99070   0.76040   0.32150   Biso      1.000     C          -0.022225           
         C18       1.0000    0.89600   0.80540   0.28210   Biso      1.000     C          -0.11545799999999999          
         C19       1.0000    0.77150   0.79680   0.28690   Biso      1.000     C          -0.133497           
         C20       1.0000    0.95700   0.71500   0.36700   Biso      1.000     C          -0.072439           
         C21       1.0000    0.83500   0.70200   0.37220   Biso      1.000     C          -0.086741           
         C22       1.0000    0.61030   0.72430   0.33640   Biso      1.000     C          0.6929270000000001  
         C23       1.0000    0.67000   0.91840   0.07730   Biso      1.000     C          0.622258  
         C24       1.0000    0.81690   0.89550   0.08900   Biso      1.000     C          -0.015827           
         C25       1.0000    0.89150   0.81770   0.13200   Biso      1.000     C          -0.096773           
         C26       1.0000    0.47130   0.90980   0.47740   Biso      1.000     C          -0.002577           
         C27       1.0000    0.63700   0.65900   0.81850   Biso      1.000     C          -0.10881300000000001          
         C28       1.0000    0.61760   0.56390   0.79390   Biso      1.000     C          -0.113544           
         C29       1.0000    0.57950   0.58580   0.74280   Biso      1.000     C          -0.018394           
         C30       1.0000    0.92000   0.57340   0.53780   Biso      1.000     C          -0.117612           
         C31       1.0000    0.96300   0.41250   0.48130   Biso      1.000     C          -0.1064   
         C32       1.0000    0.88340   0.48570   0.51980   Biso      1.000     C          -0.003015           
         C33       1.0000    0.76900   0.46480   0.54340   Biso      1.000     C          0.6039439999999999  
         C34       1.0000    0.58300   0.96120   0.54350   Biso      1.000     C          -0.121099           
         C35       1.0000    0.44400   0.13160   0.47950   Biso      1.000     C          -0.110043           
         C36       1.0000    0.52870   0.09020   0.52260   Biso      1.000     C          -0.002577           
         C37       1.0000    0.56220   0.18930   0.54670   Biso      1.000     C          0.585002  
         C38       1.0000    0.87410   0.23360   0.68340   Biso      1.000     C          0.6831430000000001  
         C39       1.0000    0.00930   0.23960   0.67850   Biso      1.000     C          -0.022225           
         C40       1.0000    0.10400   0.19460   0.71790   Biso      1.000     C          -0.11545799999999999          
         C41       1.0000    0.22850   0.20320   0.71310   Biso      1.000     C          -0.133497           
         C42       1.0000    0.04300   0.28500   0.63300   Biso      1.000     C          -0.072439           
         C43       1.0000    0.16500   0.29800   0.62780   Biso      1.000     C          -0.086741           
         C44       1.0000    0.25710   0.25840   0.66790   Biso      1.000     C          -0.012825999999999999         
         C45       1.0000    0.38970   0.27570   0.66360   Biso      1.000     C          0.6929270000000001  
         C46       1.0000    0.33000   0.08160   0.92270   Biso      1.000     C          0.622258  
         C47       1.0000    0.18310   0.10450   0.91100   Biso      1.000     C          -0.015827           
         C48       1.0000    0.10850   0.18230   0.86800   Biso      1.000     C          -0.096773           
         C49       1.0000    0.97890   0.19230   0.85710   Biso      1.000     C          -0.08962  
         C50       1.0000    0.12400   0.03600   0.94300   Biso      1.000     C          -0.125671           
         C51       1.0000    0.99760   0.04460   0.92990   Biso      1.000     C          -0.095295           
         C52       1.0000    0.92330   0.12280   0.88750   Biso      1.000     C          -0.033589           
         C53       1.0000    0.79020   0.12280   0.87200   Biso      1.000     C          0.694006  
         C54       1.0000    0.55750   0.48210   0.71860   Biso      1.000     C          0.696133  
         C55       1.0000    0.02110   0.80770   0.14290   Biso      1.000     C          -0.089619           
         C56       1.0000    0.87600   0.96400   0.05700   Biso      1.000     C          -0.125671           
         C57       1.0000    0.74290   0.74160   0.33210   Biso      1.000     C          -0.012825999999999999         
         C58       1.0000    0.07670   0.87720   0.11250   Biso      1.000     C          -0.033593           
         C59       1.0000    0.48800   0.24700   0.00130   Biso      1.000     C          0.652382  
         C60       1.0000    0.49480   0.38050   0.00240   Biso      1.000     C          -0.022698           
         C61       1.0000    0.52700   0.43380   0.95610   Biso      1.000     C          -0.11034200000000001          
         C62       1.0000    0.46860   0.44660   0.04530   Biso      1.000     C          -0.105191           
         C63       1.0000    0.38800   0.22250   0.20810   Biso      1.000     C          -0.037893           
         C64       1.0000    0.42130   0.20000   0.25950   Biso      1.000     C          -0.10503699999999999          
         C65       1.0000    0.37090   0.11790   0.18180   Biso      1.000     C          0.696318  
         C66       1.0000    0.00240   0.95540   0.07010   Biso      1.000     C          -0.095291           
         C67       1.0000    0.36300   0.34100   0.18150   Biso      1.000     C          -0.10881300000000001          
         C68       1.0000    0.38240   0.43610   0.20610   Biso      1.000     C          -0.113544           
         C69       1.0000    0.42050   0.41420   0.25720   Biso      1.000     C          -0.018394           
         C70       1.0000    0.44250   0.51790   0.28140   Biso      1.000     C          0.696133  
         C71       1.0000    0.20980   0.87720   0.12800   Biso      1.000     C          0.694006  
         C72       1.0000    0.43800   0.29320   0.28310   Biso      1.000     C          -0.069477           
         H1        1.0000    0.81610   0.66750   0.40310   Biso      1.000     H          0.128631  
         H2        1.0000    0.36190   0.06520   0.42700   Biso      1.000     H          0.11574000000000001           
         H3        1.0000    0.59390   0.77980   0.53410   Biso      1.000     H          0.1228    
         H4        1.0000    0.91440   0.84230   0.25160   Biso      1.000     H          0.105274  
         H5        1.0000    0.70750   0.82810   0.25990   Biso      1.000     H          0.106852  
         H6        1.0000    0.01730   0.69110   0.39490   Biso      1.000     H          0.11983599999999998           
         H7        1.0000    0.85460   0.77220   0.15340   Biso      1.000     H          0.127466  
         H8        1.0000    0.43250   0.12130   0.27770   Biso      1.000     H          0.120485  
         H9        1.0000    0.82870   0.01430   0.02730   Biso      1.000     H          0.110427  
         H10       1.0000    0.03860   0.00350   0.04990   Biso      1.000     H          0.106322  
         H11       1.0000    0.36970   0.51520   0.18780   Biso      1.000     H          0.118422  
         H12       1.0000    0.33310   0.35810   0.14750   Biso      1.000     H          0.11955299999999999           
         H13       1.0000    0.46110   0.27700   0.31770   Biso      1.000     H          0.131421  
         H14       1.0000    0.13270   0.37400   0.43640   Biso      1.000     H          0.114148  
         H15       1.0000    0.44770   0.41100   0.07570   Biso      1.000     H          0.12019400000000001           
         H16       1.0000    0.54520   0.38790   0.92670   Biso      1.000     H          0.12288199999999999           
         H17       1.0000    0.07180   0.75330   0.17130   Biso      1.000     H          0.12465799999999999           
         H18       1.0000    0.45480   0.61210   0.07330   Biso      1.000     H          0.12288299999999999           
         H19       1.0000    0.06050   0.64780   0.53250   Biso      1.000     H          0.12016199999999999           
         H20       1.0000    0.56750   0.87870   0.72230   Biso      1.000     H          0.120485  
         H21       1.0000    0.55230   0.58900   0.92430   Biso      1.000     H          0.12019500000000001           
         H22       1.0000    0.86730   0.62600   0.56360   Biso      1.000     H          0.114147  
         H23       1.0000    0.93950   0.35220   0.46750   Biso      1.000     H          0.12016199999999999           
         H24       1.0000    0.63810   0.93480   0.57300   Biso      1.000     H          0.11574000000000001           
         H25       1.0000    0.08560   0.15770   0.74840   Biso      1.000     H          0.105274  
         H26       1.0000    0.29250   0.17190   0.74010   Biso      1.000     H          0.106852  
         H27       1.0000    0.98270   0.30890   0.60510   Biso      1.000     H          0.11983599999999998           
         H28       1.0000    0.40610   0.22020   0.46590   Biso      1.000     H          0.1228    
         H29       1.0000    0.14540   0.22780   0.84660   Biso      1.000     H          0.127466  
         H30       1.0000    0.92820   0.24670   0.82870   Biso      1.000     H          0.12465799999999999           
         H31       1.0000    0.17130   0.98570   0.97270   Biso      1.000     H          0.110427  
         H32       1.0000    0.96140   0.99650   0.95010   Biso      1.000     H          0.106322  
         H33       1.0000    0.63030   0.48480   0.81220   Biso      1.000     H          0.118422  
         H34       1.0000    0.66690   0.64190   0.85250   Biso      1.000     H          0.11955299999999999           
         H35       1.0000    0.18390   0.33250   0.59690   Biso      1.000     H          0.128631  
         H36       1.0000    0.53890   0.72300   0.68230   Biso      1.000     H          0.131421  
         O1        1.0000    0.56300   0.38650   0.74500   Biso      1.000     O          -0.7038909999999999           
         O2        1.0000    0.60390   0.99060   0.79420   Biso      1.000     O          -0.757206           
         O3        1.0000    0.66490   0.85630   0.86510   Biso      1.000     O          -0.699391           
         O4        1.0000    0.30110   0.46890   0.42170   Biso      1.000     O          -0.659567           
         O5        1.0000    0.57500   0.77990   0.96160   Biso      1.000     O          -0.6762520000000001           
         O6        1.0000    0.25350   0.62730   0.47120   Biso      1.000     O          -0.664321           
         O7        1.0000    0.53350   0.50310   0.67080   Biso      1.000     O          -0.677053           
         O8        1.0000    0.45220   0.82330   0.03570   Biso      1.000     O          -0.667396           
         O9        1.0000    0.75640   0.04790   0.89920   Biso      1.000     O          -0.715853           
         O10       1.0000    0.38960   0.35860   0.62920   Biso      1.000     O          -0.630394           
         O11       1.0000    0.37030   0.04920   0.97000   Biso      1.000     O          -0.797377           
         O12       1.0000    0.40560   0.09010   0.88790   Biso      1.000     O          -0.560311           
         O13       1.0000    0.50700   0.30960   0.52710   Biso      1.000     O          -0.636282           
         O14       1.0000    0.64450   0.15230   0.58510   Biso      1.000     O          -0.665181           
         O15       1.0000    0.79470   0.26430   0.64440   Biso      1.000     O          -0.6864520000000001           
         O16       1.0000    0.84310   0.19670   0.72570   Biso      1.000     O          -0.733333           
         O17       1.0000    0.49300   0.69040   0.47290   Biso      1.000     O          -0.636282           
         O18       1.0000    0.48500   0.20900   0.69460   Biso      1.000     O          -0.7789689999999999           
         O19       1.0000    0.72680   0.19370   0.83430   Biso      1.000     O          -0.6904399999999999           
         O20       1.0000    0.35550   0.84770   0.41490   Biso      1.000     O          -0.665181           
         O21       1.0000    0.69890   0.53110   0.57830   Biso      1.000     O          -0.659567           
         O22       1.0000    0.15690   0.80330   0.27430   Biso      1.000     O          -0.733333           
         O23       1.0000    0.74650   0.37270   0.52880   Biso      1.000     O          -0.664321           
         O24       1.0000    0.42500   0.22010   0.03840   Biso      1.000     O          -0.6762520000000001           
         O25       1.0000    0.54780   0.17670   0.96430   Biso      1.000     O          -0.667396           
         O26       1.0000    0.20530   0.73570   0.35560   Biso      1.000     O          -0.6864520000000001           
         O27       1.0000    0.39610   0.00940   0.20580   Biso      1.000     O          -0.757206           
         O28       1.0000    0.43700   0.61350   0.25500   Biso      1.000     O          -0.7038909999999999           
         O29       1.0000    0.33510   0.14370   0.13490   Biso      1.000     O          -0.699391           
         O30       1.0000    0.24360   0.95210   0.10080   Biso      1.000     O          -0.715853           
         O31       1.0000    0.27320   0.80630   0.16570   Biso      1.000     O          -0.6904399999999999           
         O32       1.0000    0.62970   0.95080   0.03000   Biso      1.000     O          -0.797377           
         O33       1.0000    0.59440   0.90990   0.11210   Biso      1.000     O          -0.560311           
         O34       1.0000    0.51500   0.79100   0.30540   Biso      1.000     O          -0.7789689999999999           
         O35       1.0000    0.61040   0.64140   0.37080   Biso      1.000     O          -0.630394           
         O36       1.0000    0.46650   0.49690   0.32920   Biso      1.000     O          -0.677053           
         Tb1       1.0000    0.62048   0.96372   0.93956   Biso      1.000     Tb          2.120955  
         Tb2       1.0000    0.65614   0.15364   0.75811   Biso      1.000     Tb          2.2065759999999996  
         Tb3       1.0000    0.58873   0.38257   0.60038   Biso      1.000     Tb          2.06285   
         Tb4       1.0000    0.37952   0.03628   0.06044   Biso      1.000     Tb          2.120955  
         Tb5       1.0000    0.34386   0.84636   0.24189   Biso      1.000     Tb          2.2065759999999996  
         Tb6       1.0000    0.41127   0.61743   0.39962   Biso      1.000     Tb          2.06285 