
##########################################################################
#               Crystallographic Information Format file
#               Produced by PyCifRW module
#
#  This is a CIF file.  CIF has been adopted by the International
#  Union of Crystallography as the standard for data archiving and
#  transmission.
#
#  For information on this file format, follow the CIF links at
#  http://www.iucr.org
##########################################################################

data_image0

_cell_length_a                          10.741
_cell_length_b                          11.284
_cell_length_c                          26.152
_cell_angle_alpha                       84.97
_cell_angle_beta                        87.963
_cell_angle_gamma                       62.568
_symmetry_space_group_name_H-M          'P 1'
_symmetry_int_tables_number             1
loop_
  _symmetry_equiv_pos_as_xyz
         'x, y, z' 
loop_
  _atom_site_label
  _atom_site_occupancy
  _atom_site_fract_x
  _atom_site_fract_y
  _atom_site_fract_z
  _atom_site_thermal_displace_type
  _atom_site_B_iso_or_equiv
  _atom_site_type_symbol
  _atom_site_charge
         C1        1.0000    0.23030   0.53950   0.95666   Biso      1.000     C          0.5825    
         C2        1.0000    0.51130   0.75290   0.49934   Biso      1.000     C          0.66898   
         C3        1.0000    0.03180   0.59360   0.01894   Biso      1.000     C          -0.105486           
         C4        1.0000    0.07850   0.42440   0.96184   Biso      1.000     C          -0.108729           
         C5        1.0000    0.11600   0.51350   0.97993   Biso      1.000     C          -0.00613  
         C6        1.0000    0.58290   0.96180   0.04331   Biso      1.000     C          -0.123135           
         C7        1.0000    0.55580   0.86890   0.02084   Biso      1.000     C          -0.1115   
         C8        1.0000    0.41710   0.03820   0.95669   Biso      1.000     C          -0.123135           
         C9        1.0000    0.46980   0.90780   0.97729   Biso      1.000     C          -0.011854           
         C10       1.0000    0.43760   0.80800   0.95274   Biso      1.000     C          0.605535  
         C11       1.0000    0.83560   0.69940   0.87172   Biso      1.000     C          -0.080088           
         C12       1.0000    0.95870   0.71130   0.86754   Biso      1.000     C          -0.074801           
         C13       1.0000    0.90020   0.80060   0.78132   Biso      1.000     C          -0.11969  
         C14       1.0000    0.77350   0.79350   0.78582   Biso      1.000     C          -0.122367           
         C15       1.0000    0.74130   0.74050   0.83132   Biso      1.000     C          -0.020307           
         C16       1.0000    0.61270   0.72350   0.83556   Biso      1.000     C          0.700677  
         C17       1.0000    0.99300   0.75900   0.82226   Biso      1.000     C          -0.019344           
         C18       1.0000    0.12960   0.76620   0.81665   Biso      1.000     C          0.681918  
         C19       1.0000    0.44010   0.51870   0.78275   Biso      1.000     C          0.682184  
         C20       1.0000    0.42020   0.41240   0.75659   Biso      1.000     C          -0.013077           
         C21       1.0000    0.02140   0.80550   0.64197   Biso      1.000     C          -0.086983           
         C22       1.0000    0.89070   0.81530   0.63049   Biso      1.000     C          -0.097057           
         C23       1.0000    0.81860   0.89500   0.58790   Biso      1.000     C          -0.009976           
         C24       1.0000    0.87290   0.96580   0.55665   Biso      1.000     C          -0.121064           
         C25       1.0000    0.50520   0.62100   0.49935   Biso      1.000     C          -0.026329           
         C26       1.0000    0.00020   0.95740   0.56928   Biso      1.000     C          -0.097171           
         C27       1.0000    0.52860   0.55430   0.45501   Biso      1.000     C          -0.107328           
         C28       1.0000    0.32490   0.08470   0.42452   Biso      1.000     C          0.633908  
         C29       1.0000    0.16440   0.30060   0.12828   Biso      1.000     C          -0.080088           
         C30       1.0000    0.04130   0.28870   0.13246   Biso      1.000     C          -0.074802           
         C31       1.0000    0.09980   0.19940   0.21868   Biso      1.000     C          -0.11969  
         C32       1.0000    0.22650   0.20650   0.21418   Biso      1.000     C          -0.122367           
         C33       1.0000    0.25870   0.25950   0.16868   Biso      1.000     C          -0.020307           
         C34       1.0000    0.38730   0.27650   0.16444   Biso      1.000     C          0.700677  
         C35       1.0000    0.00700   0.24100   0.17774   Biso      1.000     C          -0.019344           
         C36       1.0000    0.87040   0.23380   0.18335   Biso      1.000     C          0.681918  
         C37       1.0000    0.55990   0.48130   0.21725   Biso      1.000     C          0.682184  
         C38       1.0000    0.57980   0.58760   0.24341   Biso      1.000     C          -0.013077           
         C39       1.0000    0.97860   0.19450   0.35803   Biso      1.000     C          -0.086983           
         C40       1.0000    0.10930   0.18470   0.36951   Biso      1.000     C          -0.097058           
         C41       1.0000    0.18140   0.10500   0.41210   Biso      1.000     C          -0.009976           
         C42       1.0000    0.12710   0.03420   0.44335   Biso      1.000     C          -0.121064           
         C43       1.0000    0.99980   0.04260   0.43072   Biso      1.000     C          -0.097172           
         C44       1.0000    0.92480   0.12150   0.38853   Biso      1.000     C          -0.033566           
         C45       1.0000    0.78870   0.12250   0.37360   Biso      1.000     C          0.688334  
         C46       1.0000    0.56480   0.70140   0.21631   Biso      1.000     C          -0.079157           
         C47       1.0000    0.57820   0.80060   0.24077   Biso      1.000     C          -0.105549           
         C48       1.0000    0.61990   0.56070   0.29498   Biso      1.000     C          -0.111727           
         C49       1.0000    0.63670   0.65900   0.31889   Biso      1.000     C          -0.108992           
         C50       1.0000    0.61780   0.77500   0.29240   Biso      1.000     C          -0.042007           
         C51       1.0000    0.63010   0.88400   0.31936   Biso      1.000     C          0.697352  
         C52       1.0000    0.47440   0.56750   0.54424   Biso      1.000     C          -0.111997           
         C53       1.0000    0.07520   0.87850   0.61147   Biso      1.000     C          -0.033566           
         C54       1.0000    0.21130   0.87750   0.62640   Biso      1.000     C          0.688334  
         C55       1.0000    0.43520   0.29860   0.78369   Biso      1.000     C          -0.079157           
         C56       1.0000    0.96820   0.40640   0.98106   Biso      1.000     C          -0.105477           
         C57       1.0000    0.92150   0.57560   0.03816   Biso      1.000     C          -0.108721           
         C58       1.0000    0.88400   0.48650   0.02007   Biso      1.000     C          -0.006131           
         C59       1.0000    0.76970   0.46050   0.04334   Biso      1.000     C          0.5825    
         C60       1.0000    0.44420   0.13110   0.97916   Biso      1.000     C          -0.1115   
         C61       1.0000    0.56240   0.19200   0.04726   Biso      1.000     C          0.605535  
         C62       1.0000    0.48870   0.24710   0.50066   Biso      1.000     C          0.66898   
         C63       1.0000    0.49480   0.37900   0.50065   Biso      1.000     C          -0.02633  
         C64       1.0000    0.53020   0.09220   0.02271   Biso      1.000     C          -0.011853           
         C65       1.0000    0.52560   0.43250   0.45576   Biso      1.000     C          -0.111996           
         C66       1.0000    0.67510   0.91530   0.57548   Biso      1.000     C          0.633909  
         C67       1.0000    0.36990   0.11600   0.68064   Biso      1.000     C          0.697353  
         C68       1.0000    0.38220   0.22500   0.70760   Biso      1.000     C          -0.042024           
         C69       1.0000    0.47140   0.44570   0.54499   Biso      1.000     C          -0.107327           
         C70       1.0000    0.38010   0.43930   0.70502   Biso      1.000     C          -0.111729           
         C71       1.0000    0.42180   0.19940   0.75923   Biso      1.000     C          -0.105547           
         C72       1.0000    0.36330   0.34100   0.68111   Biso      1.000     C          -0.108976           
         H1        1.0000    0.01830   0.68650   0.89580   Biso      1.000     H          0.120234  
         H2        1.0000    0.92240   0.83360   0.75040   Biso      1.000     H          0.106586  
         H3        1.0000    0.71090   0.82420   0.75830   Biso      1.000     H          0.108022  
         H4        1.0000    0.07250   0.75010   0.67010   Biso      1.000     H          0.126742  
         H5        1.0000    0.85310   0.76870   0.65130   Biso      1.000     H          0.129904  
         H6        1.0000    0.82400   0.01810   0.52760   Biso      1.000     H          0.11252   
         H7        1.0000    0.45440   0.28630   0.81870   Biso      1.000     H          0.138199  
         H8        1.0000    0.81610   0.66310   0.90240   Biso      1.000     H          0.124549  
         H9        1.0000    0.36490   0.51980   0.68710   Biso      1.000     H          0.124163  
         H10       1.0000    0.33890   0.35550   0.64650   Biso      1.000     H          0.116988  
         H11       1.0000    0.54430   0.38750   0.42610   Biso      1.000     H          0.124709  
         H12       1.0000    0.45340   0.40810   0.57570   Biso      1.000     H          0.116371  
         H13       1.0000    0.03610   0.00610   0.54890   Biso      1.000     H          0.10633   
         H14       1.0000    0.43890   0.11830   0.77700   Biso      1.000     H          0.120654  
         H15       1.0000    0.59490   0.78050   0.03480   Biso      1.000     H          0.119224  
         H16       1.0000    0.13040   0.37400   0.93530   Biso      1.000     H          0.116227  
         H17       1.0000    0.94820   0.34220   0.96870   Biso      1.000     H          0.124549  
         H18       1.0000    0.86960   0.62600   0.06470   Biso      1.000     H          0.116227  
         H19       1.0000    0.40510   0.21950   0.96520   Biso      1.000     H          0.119224  
         H20       1.0000    0.63780   0.93530   0.07290   Biso      1.000     H          0.112182  
         H21       1.0000    0.18390   0.33690   0.09760   Biso      1.000     H          0.124549  
         H22       1.0000    0.98170   0.31350   0.10420   Biso      1.000     H          0.120234  
         H23       1.0000    0.07760   0.16640   0.24960   Biso      1.000     H          0.106585  
         H24       1.0000    0.28910   0.17580   0.24170   Biso      1.000     H          0.108022  
         H25       1.0000    0.36220   0.06470   0.92710   Biso      1.000     H          0.112182  
         H26       1.0000    0.92750   0.24990   0.32990   Biso      1.000     H          0.126742  
         H27       1.0000    0.17600   0.98190   0.47240   Biso      1.000     H          0.11252   
         H28       1.0000    0.96390   0.99390   0.45110   Biso      1.000     H          0.10633   
         H29       1.0000    0.54560   0.71370   0.18130   Biso      1.000     H          0.1382    
         H30       1.0000    0.56110   0.88170   0.22300   Biso      1.000     H          0.120654  
         H31       1.0000    0.63510   0.48020   0.31290   Biso      1.000     H          0.124163  
         H32       1.0000    0.45570   0.61250   0.57390   Biso      1.000     H          0.124709  
         H33       1.0000    0.54660   0.59190   0.42430   Biso      1.000     H          0.116371  
         H34       1.0000    0.05180   0.65780   0.03130   Biso      1.000     H          0.12455   
         H35       1.0000    0.14690   0.23130   0.34870   Biso      1.000     H          0.129904  
         H36       1.0000    0.66110   0.64450   0.35350   Biso      1.000     H          0.116989  
         Ho1       1.0000    0.38087   0.03533   0.56029   Biso      1.000     Ho          2.1171    
         Ho2       1.0000    0.58860   0.38273   0.10033   Biso      1.000     Ho          2.059187  
         Ho3       1.0000    0.65582   0.15384   0.25820   Biso      1.000     Ho          2.209805  
         Ho4       1.0000    0.61913   0.96467   0.43971   Biso      1.000     Ho          2.1171    
         Ho5       1.0000    0.41140   0.61727   0.89967   Biso      1.000     Ho          2.059187  
         Ho6       1.0000    0.34418   0.84616   0.74180   Biso      1.000     Ho          2.209805  
         O1        1.0000    0.45650   0.82050   0.53571   Biso      1.000     O          -0.658251           
         O2        1.0000    0.36950   0.04890   0.47052   Biso      1.000     O          -0.793358           
         O3        1.0000    0.40620   0.08840   0.38942   Biso      1.000     O          -0.58802  
         O4        1.0000    0.75480   0.04650   0.39999   Biso      1.000     O          -0.704475           
         O5        1.0000    0.66530   0.85580   0.36681   Biso      1.000     O          -0.696918           
         O6        1.0000    0.84090   0.19690   0.22597   Biso      1.000     O          -0.725285           
         O7        1.0000    0.60580   0.99090   0.29484   Biso      1.000     O          -0.749868           
         O8        1.0000    0.48780   0.20590   0.19591   Biso      1.000     O          -0.807795           
         O9        1.0000    0.56310   0.38270   0.24529   Biso      1.000     O          -0.728756           
         O10       1.0000    0.57360   0.78160   0.46191   Biso      1.000     O          -0.695772           
         O11       1.0000    0.39470   0.35530   0.12996   Biso      1.000     O          -0.623056           
         O12       1.0000    0.79280   0.26600   0.14383   Biso      1.000     O          -0.68641  
         O13       1.0000    0.64440   0.15400   0.08427   Biso      1.000     O          -0.661172           
         O14       1.0000    0.50550   0.30980   0.02836   Biso      1.000     O          -0.642197           
         O15       1.0000    0.74385   0.37180   0.02814   Biso      1.000     O          -0.638315           
         O16       1.0000    0.72700   0.19430   0.33417   Biso      1.000     O          -0.701816           
         O17       1.0000    0.46330   0.49770   0.83008   Biso      1.000     O          -0.650209           
         O18       1.0000    0.25615   0.62820   0.97186   Biso      1.000     O          -0.638315           
         O19       1.0000    0.69760   0.53180   0.07863   Biso      1.000     O          -0.668558           
         O20       1.0000    0.42640   0.21840   0.53809   Biso      1.000     O          -0.695772           
         O21       1.0000    0.54350   0.17950   0.46429   Biso      1.000     O          -0.658251           
         O22       1.0000    0.63050   0.95110   0.52948   Biso      1.000     O          -0.793358           
         O23       1.0000    0.59380   0.91160   0.61058   Biso      1.000     O          -0.58802  
         O24       1.0000    0.24520   0.95350   0.60001   Biso      1.000     O          -0.704475           
         O25       1.0000    0.33470   0.14420   0.63319   Biso      1.000     O          -0.696918           
         O26       1.0000    0.15910   0.80310   0.77403   Biso      1.000     O          -0.725285           
         O27       1.0000    0.39420   0.00910   0.70516   Biso      1.000     O          -0.749868           
         O28       1.0000    0.27300   0.80570   0.66583   Biso      1.000     O          -0.701816           
         O29       1.0000    0.43690   0.61730   0.75471   Biso      1.000     O          -0.728756           
         O30       1.0000    0.51220   0.79410   0.80409   Biso      1.000     O          -0.807795           
         O31       1.0000    0.60530   0.64470   0.87004   Biso      1.000     O          -0.623057           
         O32       1.0000    0.20720   0.73400   0.85617   Biso      1.000     O          -0.68641  
         O33       1.0000    0.35560   0.84600   0.91573   Biso      1.000     O          -0.661172           
         O34       1.0000    0.49450   0.69020   0.97164   Biso      1.000     O          -0.642197           
         O35       1.0000    0.30240   0.46820   0.92137   Biso      1.000     O          -0.668558           
         O36       1.0000    0.53670   0.50230   0.16992   Biso      1.000     O          -0.650209 