
##########################################################################
#               Crystallographic Information Format file
#               Produced by PyCifRW module
#
#  This is a CIF file.  CIF has been adopted by the International
#  Union of Crystallography as the standard for data archiving and
#  transmission.
#
#  For information on this file format, follow the CIF links at
#  http://www.iucr.org
##########################################################################

data_image0

_cell_length_a                          10.7098
_cell_length_b                          11.2449
_cell_length_c                          26.066
_cell_angle_alpha                       84.998
_cell_angle_beta                        88.135
_cell_angle_gamma                       62.66
_symmetry_space_group_name_H-M          'P 1'
_symmetry_int_tables_number             1
loop_
  _symmetry_equiv_pos_as_xyz
         'x, y, z' 
loop_
  _atom_site_label
  _atom_site_occupancy
  _atom_site_fract_x
  _atom_site_fract_y
  _atom_site_fract_z
  _atom_site_thermal_displace_type
  _atom_site_B_iso_or_equiv
  _atom_site_type_symbol
  _atom_site_charge
         C1        1.0000    0.23400   0.53550   0.95606   Biso      1.000     C          0.581206  
         C2        1.0000    0.37940   0.43920   0.70485   Biso      1.000     C          -0.11190499999999999          
         C3        1.0000    0.36240   0.34220   0.68071   Biso      1.000     C          -0.106929           
         C4        1.0000    0.43700   0.29650   0.78397   Biso      1.000     C          -0.07906  
         C5        1.0000    0.42030   0.19940   0.75954   Biso      1.000     C          -0.1008   
         C6        1.0000    0.38400   0.22220   0.70752   Biso      1.000     C          -0.046286           
         C7        1.0000    0.36920   0.11730   0.68027   Biso      1.000     C          0.7031069999999999  
         C8        1.0000    0.41790   0.41610   0.75667   Biso      1.000     C          -0.016135           
         C9        1.0000    0.47120   0.44510   0.54503   Biso      1.000     C          -0.107091           
         C10       1.0000    0.49460   0.37860   0.50104   Biso      1.000     C          -0.029735           
         C11       1.0000    0.48760   0.24730   0.50095   Biso      1.000     C          0.676484  
         C12       1.0000    0.55630   0.86770   0.02084   Biso      1.000     C          -0.110302           
         C13       1.0000    0.41580   0.03930   0.95668   Biso      1.000     C          -0.118799           
         C14       1.0000    0.11490   0.51500   0.98058   Biso      1.000     C          -0.005988           
         C15       1.0000    0.03400   0.59190   0.01858   Biso      1.000     C          -0.10509600000000001          
         C16       1.0000    0.52460   0.43410   0.45522   Biso      1.000     C          -0.10926  
         C17       1.0000    0.07920   0.42330   0.96115   Biso      1.000     C          -0.11631400000000001          
         C18       1.0000    0.44000   0.51910   0.78278   Biso      1.000     C          0.695654  
         C19       1.0000    0.07710   0.87710   0.61139   Biso      1.000     C          -0.034674           
         C20       1.0000    0.13090   0.76570   0.81717   Biso      1.000     C          0.684085  
         C21       1.0000    0.99460   0.75730   0.82201   Biso      1.000     C          -0.029673           
         C22       1.0000    0.89980   0.80000   0.78067   Biso      1.000     C          -0.11611199999999999          
         C23       1.0000    0.77470   0.79300   0.78541   Biso      1.000     C          -0.128577           
         C24       1.0000    0.95760   0.71230   0.86822   Biso      1.000     C          -0.073022           
         C25       1.0000    0.83430   0.70090   0.87267   Biso      1.000     C          -0.08338200000000001          
         C26       1.0000    0.21040   0.87680   0.62725   Biso      1.000     C          0.69308   
         C27       1.0000    0.74230   0.74060   0.83142   Biso      1.000     C          -0.017206           
         C28       1.0000    0.67370   0.91760   0.57485   Biso      1.000     C          0.638109  
         C29       1.0000    0.81740   0.89580   0.58733   Biso      1.000     C          -0.012032           
         C30       1.0000    0.89240   0.81380   0.63001   Biso      1.000     C          -0.094046           
         C31       1.0000    0.02260   0.80300   0.64194   Biso      1.000     C          -0.088422           
         C32       1.0000    0.87230   0.96720   0.55619   Biso      1.000     C          -0.12336099999999998          
         C33       1.0000    0.00160   0.95810   0.56929   Biso      1.000     C          -0.094907           
         C34       1.0000    0.60900   0.72510   0.83506   Biso      1.000     C          0.6983779999999999  
         C35       1.0000    0.51240   0.75270   0.49905   Biso      1.000     C          0.676484  
         C36       1.0000    0.50540   0.62140   0.49896   Biso      1.000     C          -0.029738999999999998         
         C37       1.0000    0.47540   0.56590   0.54478   Biso      1.000     C          -0.109259           
         C38       1.0000    0.16570   0.29910   0.12733   Biso      1.000     C          -0.083381           
         C39       1.0000    0.04240   0.28770   0.13178   Biso      1.000     C          -0.073028           
         C40       1.0000    0.22530   0.20700   0.21459   Biso      1.000     C          -0.128579           
         C41       1.0000    0.10020   0.20000   0.21933   Biso      1.000     C          -0.11610999999999999          
         C42       1.0000    0.00540   0.24270   0.17799   Biso      1.000     C          -0.029668           
         C43       1.0000    0.86910   0.23430   0.18283   Biso      1.000     C          0.684085  
         C44       1.0000    0.25770   0.25940   0.16858   Biso      1.000     C          -0.017206           
         C45       1.0000    0.56090   0.19160   0.04662   Biso      1.000     C          0.596887  
         C46       1.0000    0.44370   0.13230   0.97916   Biso      1.000     C          -0.110301           
         C47       1.0000    0.58420   0.96070   0.04332   Biso      1.000     C          -0.118798           
         C48       1.0000    0.76600   0.46450   0.04394   Biso      1.000     C          0.581206  
         C49       1.0000    0.88510   0.48500   0.01942   Biso      1.000     C          -0.005988           
         C50       1.0000    0.96600   0.40810   0.98142   Biso      1.000     C          -0.10509500000000001          
         C51       1.0000    0.92080   0.57670   0.03885   Biso      1.000     C          -0.11631300000000001          
         C52       1.0000    0.52940   0.09200   0.02269   Biso      1.000     C          -0.00602  
         C53       1.0000    0.39100   0.27490   0.16494   Biso      1.000     C          0.6983779999999999  
         C54       1.0000    0.32630   0.08240   0.42515   Biso      1.000     C          0.638109  
         C55       1.0000    0.18260   0.10420   0.41267   Biso      1.000     C          -0.012032           
         C56       1.0000    0.52880   0.55490   0.45497   Biso      1.000     C          -0.10708699999999999          
         C57       1.0000    0.63080   0.88270   0.31973   Biso      1.000     C          0.7031069999999999  
         C58       1.0000    0.61600   0.77780   0.29248   Biso      1.000     C          -0.046286           
         C59       1.0000    0.57970   0.80060   0.24046   Biso      1.000     C          -0.1008   
         C60       1.0000    0.56300   0.70350   0.21603   Biso      1.000     C          -0.079061           
         C61       1.0000    0.63760   0.65780   0.31929   Biso      1.000     C          -0.10693  
         C62       1.0000    0.62060   0.56080   0.29515   Biso      1.000     C          -0.11190399999999999          
         C63       1.0000    0.58210   0.58390   0.24333   Biso      1.000     C          -0.016135           
         C64       1.0000    0.56000   0.48090   0.21722   Biso      1.000     C          0.695654  
         C65       1.0000    0.78960   0.12320   0.37275   Biso      1.000     C          0.69308   
         C66       1.0000    0.92290   0.12290   0.38861   Biso      1.000     C          -0.034674           
         C67       1.0000    0.99840   0.04190   0.43071   Biso      1.000     C          -0.09490599999999999          
         C68       1.0000    0.12770   0.03280   0.44381   Biso      1.000     C          -0.12336099999999998          
         C69       1.0000    0.97740   0.19700   0.35806   Biso      1.000     C          -0.088424           
         C70       1.0000    0.10760   0.18620   0.36999   Biso      1.000     C          -0.094045           
         C71       1.0000    0.43910   0.80840   0.95338   Biso      1.000     C          0.596887  
         C72       1.0000    0.47060   0.90800   0.97731   Biso      1.000     C          -0.006019           
         Er1       1.0000    0.41153   0.61717   0.89973   Biso      1.000     Er          2.0580220000000002  
         Er2       1.0000    0.58847   0.38283   0.10027   Biso      1.000     Er          2.0580220000000002  
         Er3       1.0000    0.34426   0.84590   0.74171   Biso      1.000     Er          2.211841  
         Er4       1.0000    0.38133   0.03485   0.56025   Biso      1.000     Er          2.116914  
         Er5       1.0000    0.65574   0.15410   0.25829   Biso      1.000     Er          2.211841  
         Er6       1.0000    0.61867   0.96515   0.43975   Biso      1.000     Er          2.116914  
         H1        1.0000    0.71180   0.82340   0.75780   Biso      1.000     H          0.10831800000000001           
         H2        1.0000    0.01640   0.68930   0.89680   Biso      1.000     H          0.119573  
         H3        1.0000    0.81340   0.66630   0.90360   Biso      1.000     H          0.12847999999999998           
         H4        1.0000    0.85520   0.76610   0.65060   Biso      1.000     H          0.12871400000000002           
         H5        1.0000    0.07370   0.74680   0.67010   Biso      1.000     H          0.128591  
         H6        1.0000    0.82340   0.02020   0.52710   Biso      1.000     H          0.112312  
         H7        1.0000    0.03760   0.00760   0.54920   Biso      1.000     H          0.107083  
         H8        1.0000    0.33610   0.35800   0.64610   Biso      1.000     H          0.11660699999999999           
         H9        1.0000    0.92140   0.83340   0.74960   Biso      1.000     H          0.10498099999999999           
         H10       1.0000    0.46110   0.28150   0.81870   Biso      1.000     H          0.137523  
         H11       1.0000    0.43330   0.11970   0.77790   Biso      1.000     H          0.121396  
         H12       1.0000    0.45200   0.40770   0.57560   Biso      1.000     H          0.115494  
         H13       1.0000    0.54150   0.39010   0.42520   Biso      1.000     H          0.124277  
         H14       1.0000    0.86880   0.62760   0.06530   Biso      1.000     H          0.118798  
         H15       1.0000    0.36510   0.51920   0.68650   Biso      1.000     H          0.121803  
         H16       1.0000    0.59480   0.77900   0.03480   Biso      1.000     H          0.121769  
         H17       1.0000    0.94430   0.34460   0.96910   Biso      1.000     H          0.12445099999999999           
         H18       1.0000    0.05570   0.65540   0.03090   Biso      1.000     H          0.12445099999999999           
         H19       1.0000    0.35940   0.06600   0.92730   Biso      1.000     H          0.11344000000000001           
         H20       1.0000    0.40520   0.22100   0.96520   Biso      1.000     H          0.121769  
         H21       1.0000    0.07860   0.16660   0.25040   Biso      1.000     H          0.10498099999999999           
         H22       1.0000    0.28820   0.17660   0.24220   Biso      1.000     H          0.10831800000000001           
         H23       1.0000    0.98360   0.31070   0.10320   Biso      1.000     H          0.119573  
         H24       1.0000    0.18660   0.33370   0.09640   Biso      1.000     H          0.12847999999999998           
         H25       1.0000    0.14480   0.23390   0.34940   Biso      1.000     H          0.12871400000000002           
         H26       1.0000    0.92630   0.25320   0.32990   Biso      1.000     H          0.128591  
         H27       1.0000    0.64060   0.93400   0.07270   Biso      1.000     H          0.11344000000000001           
         H28       1.0000    0.96240   0.99240   0.45080   Biso      1.000     H          0.107083  
         H29       1.0000    0.63490   0.48080   0.31350   Biso      1.000     H          0.121803  
         H30       1.0000    0.66390   0.64200   0.35390   Biso      1.000     H          0.11660699999999999           
         H31       1.0000    0.53890   0.71850   0.18130   Biso      1.000     H          0.137523  
         H32       1.0000    0.56670   0.88030   0.22210   Biso      1.000     H          0.121396  
         H33       1.0000    0.54800   0.59230   0.42440   Biso      1.000     H          0.115494  
         H34       1.0000    0.45850   0.60990   0.57480   Biso      1.000     H          0.124277  
         H35       1.0000    0.17660   0.97980   0.47290   Biso      1.000     H          0.112312  
         H36       1.0000    0.13120   0.37240   0.93470   Biso      1.000     H          0.118798  
         O1        1.0000    0.45718   0.82038   0.53543   Biso      1.000     O          -0.663556           
         O2        1.0000    0.66484   0.85618   0.36653   Biso      1.000     O          -0.681393           
         O3        1.0000    0.60506   0.99252   0.29425   Biso      1.000     O          -0.776803           
         O4        1.0000    0.56425   0.38325   0.24492   Biso      1.000     O          -0.727358           
         O5        1.0000    0.53721   0.50158   0.16995   Biso      1.000     O          -0.658105           
         O6        1.0000    0.75398   0.04644   0.39977   Biso      1.000     O          -0.7265149999999999           
         O7        1.0000    0.72575   0.19485   0.33426   Biso      1.000     O          -0.690671           
         O8        1.0000    0.39606   0.35519   0.12985   Biso      1.000     O          -0.637033           
         O9        1.0000    0.40537   0.08890   0.38947   Biso      1.000     O          -0.591743           
         O10       1.0000    0.48796   0.20515   0.19572   Biso      1.000     O          -0.785258           
         O11       1.0000    0.83833   0.19848   0.22591   Biso      1.000     O          -0.739422           
         O12       1.0000    0.79304   0.26612   0.14331   Biso      1.000     O          -0.674239           
         O13       1.0000    0.64394   0.15515   0.08431   Biso      1.000     O          -0.662034           
         O14       1.0000    0.50248   0.31309   0.02826   Biso      1.000     O          -0.64531  
         O15       1.0000    0.57333   0.78206   0.46192   Biso      1.000     O          -0.694148           
         O16       1.0000    0.37051   0.04775   0.47062   Biso      1.000     O          -0.785792           
         O17       1.0000    0.30239   0.46881   0.92098   Biso      1.000     O          -0.641803           
         O18       1.0000    0.62949   0.95225   0.52938   Biso      1.000     O          -0.785792           
         O19       1.0000    0.49752   0.68691   0.97174   Biso      1.000     O          -0.64531  
         O20       1.0000    0.74339   0.37088   0.02808   Biso      1.000     O          -0.661063           
         O21       1.0000    0.42667   0.21794   0.53808   Biso      1.000     O          -0.6941470000000001           
         O22       1.0000    0.54282   0.17962   0.46457   Biso      1.000     O          -0.663556           
         O23       1.0000    0.33516   0.14382   0.63347   Biso      1.000     O          -0.681393           
         O24       1.0000    0.39494   0.00748   0.70575   Biso      1.000     O          -0.776803           
         O25       1.0000    0.43575   0.61675   0.75508   Biso      1.000     O          -0.727358           
         O26       1.0000    0.46279   0.49842   0.83005   Biso      1.000     O          -0.658105           
         O27       1.0000    0.24602   0.95356   0.60023   Biso      1.000     O          -0.7265149999999999           
         O28       1.0000    0.27425   0.80515   0.66574   Biso      1.000     O          -0.690671           
         O29       1.0000    0.59463   0.91110   0.61053   Biso      1.000     O          -0.591743           
         O30       1.0000    0.51204   0.79485   0.80428   Biso      1.000     O          -0.785258           
         O31       1.0000    0.60394   0.64481   0.87015   Biso      1.000     O          -0.6370319999999999           
         O32       1.0000    0.16167   0.80152   0.77409   Biso      1.000     O          -0.739422           
         O33       1.0000    0.20696   0.73388   0.85669   Biso      1.000     O          -0.674239           
         O34       1.0000    0.35606   0.84485   0.91569   Biso      1.000     O          -0.662033           
         O35       1.0000    0.25661   0.62912   0.97192   Biso      1.000     O          -0.661063           
         O36       1.0000    0.69761   0.53119   0.07902   Biso      1.000     O          -0.641803 