
##########################################################################
#               Crystallographic Information Format file
#               Produced by PyCifRW module
#
#  This is a CIF file.  CIF has been adopted by the International
#  Union of Crystallography as the standard for data archiving and
#  transmission.
#
#  For information on this file format, follow the CIF links at
#  http://www.iucr.org
##########################################################################

data_image0

_cell_length_a                          10.7383
_cell_length_b                          11.2808
_cell_length_c                          26.138
_cell_angle_alpha                       85.111
_cell_angle_beta                        88.148
_cell_angle_gamma                       62.415
_symmetry_space_group_name_H-M          'P 1'
_symmetry_int_tables_number             1
loop_
  _symmetry_equiv_pos_as_xyz
         'x, y, z' 
loop_
  _atom_site_label
  _atom_site_occupancy
  _atom_site_fract_x
  _atom_site_fract_y
  _atom_site_fract_z
  _atom_site_thermal_displace_type
  _atom_site_B_iso_or_equiv
  _atom_site_type_symbol
  _atom_site_charge
         C1        1.0000    0.56100   0.69070   0.54605   Biso      1.000     C          0.598723  
         C2        1.0000    0.10880   0.68570   0.86979   Biso      1.000     C          -0.095452           
         C3        1.0000    0.18340   0.60390   0.91219   Biso      1.000     C          -0.008073           
         C4        1.0000    0.12820   0.53540   0.94349   Biso      1.000     C          -0.12158  
         C5        1.0000    0.99810   0.54360   0.93001   Biso      1.000     C          -0.093686           
         C6        1.0000    0.92480   0.62160   0.88845   Biso      1.000     C          -0.029175           
         C7        1.0000    0.79180   0.62280   0.87289   Biso      1.000     C          0.689495  
         C8        1.0000    0.97850   0.69520   0.85783   Biso      1.000     C          -0.089793           
         C9        1.0000    0.47420   0.06730   0.04438   Biso      1.000     C          -0.113222           
         C10       1.0000    0.50490   0.12100   0.99891   Biso      1.000     C          -0.0277   
         C11       1.0000    0.51020   0.25370   0.99879   Biso      1.000     C          0.668132  
         C12       1.0000    0.92040   0.07860   0.53823   Biso      1.000     C          -0.113728           
         C13       1.0000    0.96650   0.90840   0.48066   Biso      1.000     C          -0.101785           
         C14       1.0000    0.52910   0.59200   0.52285   Biso      1.000     C          -0.007916           
         C15       1.0000    0.58570   0.45840   0.54343   Biso      1.000     C          -0.118631           
         C16       1.0000    0.52820   0.05490   0.95498   Biso      1.000     C          -0.109048           
         C17       1.0000    0.44420   0.63110   0.47945   Biso      1.000     C          -0.110319           
         C18       1.0000    0.32340   0.58580   0.92430   Biso      1.000     C          0.634807  
         C19       1.0000    0.61650   0.27720   0.79247   Biso      1.000     C          -0.046903           
         C20       1.0000    0.38950   0.77490   0.66453   Biso      1.000     C          0.701813  
         C21       1.0000    0.04150   0.78940   0.63278   Biso      1.000     C          -0.07472999999999999          
         C22       1.0000    0.16580   0.79940   0.62756   Biso      1.000     C          -0.080499           
         C23       1.0000    0.25870   0.75960   0.66897   Biso      1.000     C          -0.021374           
         C24       1.0000    0.22680   0.70510   0.71376   Biso      1.000     C          -0.12298800000000001          
         C25       1.0000    0.10120   0.69990   0.71919   Biso      1.000     C          -0.120143           
         C26       1.0000    0.63110   0.38240   0.81945   Biso      1.000     C          0.707838  
         C27       1.0000    0.00710   0.74070   0.67794   Biso      1.000     C          -0.024746           
         C28       1.0000    0.55930   0.98210   0.71745   Biso      1.000     C          0.689293  
         C29       1.0000    0.57980   0.29790   0.74130   Biso      1.000     C          -0.09914099999999999          
         C30       1.0000    0.56340   0.20390   0.71649   Biso      1.000     C          -0.078058           
         C31       1.0000    0.58010   0.08560   0.74354   Biso      1.000     C          -0.014177           
         C32       1.0000    0.61890   0.06240   0.79478   Biso      1.000     C          -0.11128299999999999          
         C33       1.0000    0.63670   0.15750   0.81956   Biso      1.000     C          -0.11144100000000001          
         C34       1.0000    0.87090   0.73490   0.68392   Biso      1.000     C          0.687076  
         C35       1.0000    0.48980   0.74630   0.00121   Biso      1.000     C          0.668132  
         C36       1.0000    0.49510   0.87900   0.00109   Biso      1.000     C          -0.027701           
         C37       1.0000    0.47180   0.94510   0.04502   Biso      1.000     C          -0.109048           
         C38       1.0000    0.89880   0.30010   0.28081   Biso      1.000     C          -0.12014200000000001          
         C39       1.0000    0.77320   0.29490   0.28624   Biso      1.000     C          -0.12299000000000002          
         C40       1.0000    0.74130   0.24040   0.33103   Biso      1.000     C          -0.021372           
         C41       1.0000    0.83420   0.20060   0.37244   Biso      1.000     C          -0.080499           
         C42       1.0000    0.95850   0.21060   0.36722   Biso      1.000     C          -0.07473099999999999          
         C43       1.0000    0.61050   0.22510   0.33547   Biso      1.000     C          0.701812  
         C44       1.0000    0.99290   0.25930   0.32206   Biso      1.000     C          -0.024746           
         C45       1.0000    0.23210   0.03600   0.45630   Biso      1.000     C          0.575666  
         C46       1.0000    0.07960   0.92140   0.46177   Biso      1.000     C          -0.11371700000000001          
         C47       1.0000    0.03350   0.09160   0.51934   Biso      1.000     C          -0.101774           
         C48       1.0000    0.43900   0.30930   0.45395   Biso      1.000     C          0.598723  
         C49       1.0000    0.47090   0.40800   0.47715   Biso      1.000     C          -0.007916           
         C50       1.0000    0.41430   0.54160   0.45657   Biso      1.000     C          -0.11863  
         C51       1.0000    0.55580   0.36890   0.52055   Biso      1.000     C          -0.11031800000000001          
         C52       1.0000    0.11420   0.01540   0.48064   Biso      1.000     C          -0.006035           
         C53       1.0000    0.12910   0.26510   0.31608   Biso      1.000     C          0.687076  
         C54       1.0000    0.44070   0.01790   0.28255   Biso      1.000     C          0.689293  
         C55       1.0000    0.42020   0.70210   0.25870   Biso      1.000     C          -0.099142           
         C56       1.0000    0.52580   0.93270   0.95562   Biso      1.000     C          -0.113221           
         C57       1.0000    0.20820   0.37720   0.12711   Biso      1.000     C          0.689496  
         C58       1.0000    0.07520   0.37840   0.11155   Biso      1.000     C          -0.029188           
         C59       1.0000    0.00190   0.45640   0.06999   Biso      1.000     C          -0.09367  
         C60       1.0000    0.87180   0.46460   0.05651   Biso      1.000     C          -0.12158900000000002          
         C61       1.0000    0.81660   0.39610   0.08781   Biso      1.000     C          -0.008068           
         C62       1.0000    0.89120   0.31430   0.13021   Biso      1.000     C          -0.095452           
         C63       1.0000    0.02150   0.30480   0.14217   Biso      1.000     C          -0.089792           
         C64       1.0000    0.67660   0.41420   0.07570   Biso      1.000     C          0.634807  
         C65       1.0000    0.36890   0.61760   0.18055   Biso      1.000     C          0.7078369999999999  
         C66       1.0000    0.38350   0.72280   0.20753   Biso      1.000     C          -0.046902           
         C67       1.0000    0.36330   0.84250   0.18044   Biso      1.000     C          -0.111443           
         C68       1.0000    0.38110   0.93760   0.20522   Biso      1.000     C          -0.11128199999999999          
         C69       1.0000    0.41990   0.91440   0.25646   Biso      1.000     C          -0.014178           
         C70       1.0000    0.43660   0.79610   0.28351   Biso      1.000     C          -0.078058           
         C71       1.0000    0.76790   0.96400   0.54370   Biso      1.000     C          0.575666  
         C72       1.0000    0.88580   0.98460   0.51936   Biso      1.000     C          -0.006032           
         Dy1       1.0000    0.61982   0.46422   0.93967   Biso      1.000     Dy          2.116616  
         Dy2       1.0000    0.38018   0.53578   0.06033   Biso      1.000     Dy          2.116616  
         Dy3       1.0000    0.58851   0.88282   0.60037   Biso      1.000     Dy          2.063119  
         Dy4       1.0000    0.65625   0.65355   0.75815   Biso      1.000     Dy          2.210903  
         Dy5       1.0000    0.41149   0.11718   0.39963   Biso      1.000     Dy          2.063119  
         Dy6       1.0000    0.34375   0.34645   0.24185   Biso      1.000     Dy          2.210903  
         H1        1.0000    0.18670   0.83260   0.59650   Biso      1.000     H          0.12848900000000002           
         H2        1.0000    0.29140   0.67130   0.74080   Biso      1.000     H          0.10491099999999999           
         H3        1.0000    0.07900   0.66900   0.75050   Biso      1.000     H          0.105157  
         H4        1.0000    0.56580   0.37770   0.72310   Biso      1.000     H          0.11633299999999999           
         H5        1.0000    0.54120   0.21900   0.68170   Biso      1.000     H          0.13752899999999998           
         H6        1.0000    0.63320   0.98230   0.81280   Biso      1.000     H          0.11860699999999999           
         H7        1.0000    0.66200   0.14160   0.85410   Biso      1.000     H          0.118038  
         H8        1.0000    0.14520   0.73390   0.84950   Biso      1.000     H          0.130212  
         H9        1.0000    0.98010   0.81650   0.60490   Biso      1.000     H          0.117927  
         H10       1.0000    0.17590   0.48470   0.97300   Biso      1.000     H          0.111946  
         H11       1.0000    0.96220   0.49440   0.95000   Biso      1.000     H          0.10794200000000001           
         H12       1.0000    0.45530   0.11250   0.07410   Biso      1.000     H          0.12488699999999998           
         H13       1.0000    0.54570   0.09260   0.92430   Biso      1.000     H          0.11658800000000001           
         H14       1.0000    0.59330   0.28050   0.53450   Biso      1.000     H          0.11946300000000001           
         H15       1.0000    0.92750   0.75030   0.82960   Biso      1.000     H          0.12776400000000002           
         H16       1.0000    0.86600   0.13200   0.56370   Biso      1.000     H          0.11918   
         H17       1.0000    0.35680   0.56970   0.42760   Biso      1.000     H          0.11595599999999999           
         H18       1.0000    0.64320   0.43030   0.57240   Biso      1.000     H          0.11595599999999999           
         H19       1.0000    0.94320   0.84740   0.46730   Biso      1.000     H          0.124242  
         H20       1.0000    0.13400   0.86800   0.43630   Biso      1.000     H          0.119179  
         H21       1.0000    0.01990   0.18350   0.39510   Biso      1.000     H          0.117927  
         H22       1.0000    0.81330   0.16740   0.40350   Biso      1.000     H          0.12848900000000002           
         H23       1.0000    0.70860   0.32870   0.25920   Biso      1.000     H          0.10491099999999999           
         H24       1.0000    0.92100   0.33100   0.24950   Biso      1.000     H          0.105157  
         H25       1.0000    0.43420   0.62230   0.27690   Biso      1.000     H          0.11633299999999999           
         H26       1.0000    0.45880   0.78100   0.31830   Biso      1.000     H          0.13752899999999998           
         H27       1.0000    0.05680   0.15260   0.53270   Biso      1.000     H          0.124241  
         H28       1.0000    0.33800   0.85840   0.14590   Biso      1.000     H          0.118038  
         H29       1.0000    0.07250   0.24970   0.17040   Biso      1.000     H          0.12776400000000002           
         H30       1.0000    0.85480   0.26610   0.15050   Biso      1.000     H          0.130212  
         H31       1.0000    0.82410   0.51530   0.02700   Biso      1.000     H          0.111946  
         H32       1.0000    0.03780   0.50560   0.05000   Biso      1.000     H          0.10794100000000001           
         H33       1.0000    0.54470   0.88750   0.92590   Biso      1.000     H          0.12488699999999998           
         H34       1.0000    0.45430   0.90740   0.07570   Biso      1.000     H          0.11658800000000001           
         H35       1.0000    0.36680   0.01770   0.18720   Biso      1.000     H          0.11860699999999999           
         H36       1.0000    0.40670   0.71950   0.46550   Biso      1.000     H          0.11946300000000001           
         O1        1.0000    0.54530   0.67820   0.96479   Biso      1.000     O          -0.661582           
         O2        1.0000    0.24340   0.45540   0.10049   Biso      1.000     O          -0.728789           
         O3        1.0000    0.27350   0.30610   0.16536   Biso      1.000     O          -0.6864060000000001           
         O4        1.0000    0.63030   0.45020   0.02968   Biso      1.000     O          -0.794193           
         O5        1.0000    0.59580   0.40900   0.11091   Biso      1.000     O          -0.587487           
         O6        1.0000    0.33440   0.64440   0.13418   Biso      1.000     O          -0.685719           
         O7        1.0000    0.39400   0.51020   0.20565   Biso      1.000     O          -0.767043           
         O8        1.0000    0.20670   0.23540   0.35559   Biso      1.000     O          -0.69107  
         O9        1.0000    0.46420   0.99780   0.32980   Biso      1.000     O          -0.654154           
         O10       1.0000    0.15850   0.30280   0.27430   Biso      1.000     O          -0.724733           
         O11       1.0000    0.51290   0.29290   0.30491   Biso      1.000     O          -0.7852819999999999           
         O12       1.0000    0.60520   0.14420   0.37034   Biso      1.000     O          -0.639645           
         O13       1.0000    0.35560   0.34750   0.41598   Biso      1.000     O          -0.6723680000000001           
         O14       1.0000    0.49450   0.18950   0.47208   Biso      1.000     O          -0.638568           
         O15       1.0000    0.42510   0.72130   0.03811   Biso      1.000     O          -0.687756           
         O16       1.0000    0.43590   0.11590   0.25497   Biso      1.000     O          -0.726275           
         O17       1.0000    0.74430   0.87200   0.52791   Biso      1.000     O          -0.6502720000000001           
         O18       1.0000    0.56410   0.88410   0.74503   Biso      1.000     O          -0.726275           
         O19       1.0000    0.50550   0.81050   0.52792   Biso      1.000     O          -0.638568           
         O20       1.0000    0.30270   0.96810   0.42068   Biso      1.000     O          -0.6556930000000001           
         O21       1.0000    0.57490   0.27870   0.96189   Biso      1.000     O          -0.687756           
         O22       1.0000    0.45470   0.32180   0.03521   Biso      1.000     O          -0.661582           
         O23       1.0000    0.75660   0.54460   0.89951   Biso      1.000     O          -0.728789           
         O24       1.0000    0.72650   0.69390   0.83464   Biso      1.000     O          -0.6864060000000001           
         O25       1.0000    0.36970   0.54980   0.97032   Biso      1.000     O          -0.794194           
         O26       1.0000    0.40420   0.59100   0.88909   Biso      1.000     O          -0.587487           
         O27       1.0000    0.66560   0.35560   0.86582   Biso      1.000     O          -0.685719           
         O28       1.0000    0.60600   0.48980   0.79435   Biso      1.000     O          -0.767043           
         O29       1.0000    0.53580   0.00220   0.67020   Biso      1.000     O          -0.654154           
         O30       1.0000    0.84150   0.69720   0.72570   Biso      1.000     O          -0.724733           
         O31       1.0000    0.79330   0.76460   0.64441   Biso      1.000     O          -0.69107  
         O32       1.0000    0.48710   0.70710   0.69509   Biso      1.000     O          -0.7852819999999999           
         O33       1.0000    0.39480   0.85580   0.62966   Biso      1.000     O          -0.639645           
         O34       1.0000    0.64440   0.65250   0.58402   Biso      1.000     O          -0.6723680000000001           
         O35       1.0000    0.69730   0.03190   0.57932   Biso      1.000     O          -0.6556930000000001           
         O36       1.0000    0.25570   0.12800   0.47209   Biso      1.000     O          -0.6502720000000001 