
##########################################################################
#               Crystallographic Information Format file
#               Produced by PyCifRW module
#
#  This is a CIF file.  CIF has been adopted by the International
#  Union of Crystallography as the standard for data archiving and
#  transmission.
#
#  For information on this file format, follow the CIF links at
#  http://www.iucr.org
##########################################################################

data_image0

_cell_length_a                          21.859
_cell_length_b                          11.6653
_cell_length_c                          7.3751
_cell_angle_alpha                       90
_cell_angle_beta                        100.301
_cell_angle_gamma                       90
_symmetry_space_group_name_H-M          'P 1'
_symmetry_int_tables_number             1
loop_
  _symmetry_equiv_pos_as_xyz
         'x, y, z' 
loop_
  _atom_site_label
  _atom_site_occupancy
  _atom_site_fract_x
  _atom_site_fract_y
  _atom_site_fract_z
  _atom_site_thermal_displace_type
  _atom_site_B_iso_or_equiv
  _atom_site_type_symbol
  _atom_site_charge
         C1        1.0000    0.26890   0.23160   0.44110   Biso      1.000     C          0.098926  
         C2        1.0000    0.25290   0.64720   0.15830   Biso      1.000     C          -0.151489           
         C3        1.0000    0.85080   0.12840   0.05430   Biso      1.000     C          -0.012575           
         C4        1.0000    0.23110   0.73160   0.05890   Biso      1.000     C          0.098969  
         C5        1.0000    0.32940   0.71580   0.94470   Biso      1.000     C          -0.16131600000000001          
         C6        1.0000    0.91490   0.07840   0.05550   Biso      1.000     C          0.669638  
         C7        1.0000    0.32940   0.28420   0.44470   Biso      1.000     C          -0.16131199999999998          
         C8        1.0000    0.58510   0.57840   0.44450   Biso      1.000     C          0.669638  
         C9        1.0000    0.64920   0.62840   0.44570   Biso      1.000     C          -0.012576           
         C10       1.0000    0.68770   0.59260   0.33750   Biso      1.000     C          -0.116201           
         C11       1.0000    0.23110   0.26840   0.55890   Biso      1.000     C          0.09893099999999999           
         C12       1.0000    0.76890   0.26840   0.94110   Biso      1.000     C          0.098922  
         C13       1.0000    0.74710   0.64720   0.34170   Biso      1.000     C          -0.151495           
         C14       1.0000    0.67060   0.71580   0.55530   Biso      1.000     C          -0.161275           
         C15       1.0000    0.25290   0.35280   0.65830   Biso      1.000     C          -0.15143299999999998          
         C16       1.0000    0.17060   0.21580   0.55530   Biso      1.000     C          -0.161313           
         C17       1.0000    0.31230   0.40740   0.66250   Biso      1.000     C          -0.116248           
         C18       1.0000    0.35080   0.37160   0.55430   Biso      1.000     C          -0.012513           
         C19       1.0000    0.58510   0.42160   0.94450   Biso      1.000     C          0.669638  
         C20       1.0000    0.64920   0.37160   0.94570   Biso      1.000     C          -0.012575           
         C21       1.0000    0.68770   0.40740   0.83750   Biso      1.000     C          -0.11620899999999999          
         C22       1.0000    0.41490   0.42160   0.55550   Biso      1.000     C          0.669633  
         C23       1.0000    0.74710   0.35280   0.84170   Biso      1.000     C          -0.15143800000000002          
         C24       1.0000    0.76890   0.73160   0.44110   Biso      1.000     C          0.098974  
         C25       1.0000    0.31230   0.59260   0.16250   Biso      1.000     C          -0.11624000000000001          
         C26       1.0000    0.81230   0.09260   0.16250   Biso      1.000     C          -0.11620899999999999          
         C27       1.0000    0.41490   0.57840   0.05550   Biso      1.000     C          0.669632  
         C28       1.0000    0.24710   0.14720   0.34170   Biso      1.000     C          -0.15143199999999998          
         C29       1.0000    0.08510   0.92160   0.94450   Biso      1.000     C          0.669638  
         C30       1.0000    0.14920   0.87160   0.94570   Biso      1.000     C          -0.012575           
         C31       1.0000    0.18770   0.90740   0.83750   Biso      1.000     C          -0.116202           
         C32       1.0000    0.24710   0.85280   0.84170   Biso      1.000     C          -0.151495           
         C33       1.0000    0.18770   0.09260   0.33750   Biso      1.000     C          -0.116248           
         C34       1.0000    0.26890   0.76840   0.94110   Biso      1.000     C          0.09898   
         C35       1.0000    0.17060   0.78420   0.05530   Biso      1.000     C          -0.161279           
         C36       1.0000    0.14920   0.12840   0.44570   Biso      1.000     C          -0.012512           
         C37       1.0000    0.08510   0.07840   0.44450   Biso      1.000     C          0.669633  
         C38       1.0000    0.35080   0.62840   0.05430   Biso      1.000     C          -0.012513           
         C39       1.0000    0.67060   0.28420   0.05530   Biso      1.000     C          -0.161277           
         C40       1.0000    0.73110   0.76840   0.55890   Biso      1.000     C          0.098924  
         C41       1.0000    0.85080   0.87160   0.55430   Biso      1.000     C          -0.012574           
         C42       1.0000    0.81230   0.90740   0.66250   Biso      1.000     C          -0.11621  
         C43       1.0000    0.82940   0.21580   0.94470   Biso      1.000     C          -0.161276           
         C44       1.0000    0.75290   0.85280   0.65830   Biso      1.000     C          -0.15143900000000002          
         C45       1.0000    0.73110   0.23160   0.05890   Biso      1.000     C          0.098928  
         C46       1.0000    0.91490   0.92160   0.55550   Biso      1.000     C          0.669638  
         C47       1.0000    0.75290   0.14720   0.15830   Biso      1.000     C          -0.15143900000000002          
         C48       1.0000    0.82940   0.78420   0.44470   Biso      1.000     C          -0.16128  
         H1        1.0000    0.64540   0.25530   0.13370   Biso      1.000     H          0.10676500000000001           
         H2        1.0000    0.82370   0.03150   0.24210   Biso      1.000     H          0.10475599999999999           
         H3        1.0000    0.85460   0.24470   0.86630   Biso      1.000     H          0.10676500000000001           
         H4        1.0000    0.17630   0.03150   0.25790   Biso      1.000     H          0.10475899999999999           
         H5        1.0000    0.35460   0.25530   0.36630   Biso      1.000     H          0.106768  
         H6        1.0000    0.32370   0.46850   0.74210   Biso      1.000     H          0.10475899999999999           
         H7        1.0000    0.72800   0.11740   0.23680   Biso      1.000     H          0.105191  
         H8        1.0000    0.22800   0.38260   0.73680   Biso      1.000     H          0.10519   
         H9        1.0000    0.64540   0.74470   0.63370   Biso      1.000     H          0.10676500000000001           
         H10       1.0000    0.32370   0.53150   0.24210   Biso      1.000     H          0.10475899999999999           
         H11       1.0000    0.82370   0.96850   0.74210   Biso      1.000     H          0.10475599999999999           
         H12       1.0000    0.77200   0.38260   0.76320   Biso      1.000     H          0.105191  
         H13       1.0000    0.22800   0.61740   0.23680   Biso      1.000     H          0.10519400000000001           
         H14       1.0000    0.35460   0.74470   0.86630   Biso      1.000     H          0.106769  
         H15       1.0000    0.85460   0.75530   0.36630   Biso      1.000     H          0.10676600000000001           
         H16       1.0000    0.67630   0.53150   0.25790   Biso      1.000     H          0.10475599999999999           
         H17       1.0000    0.14540   0.75530   0.13370   Biso      1.000     H          0.10676600000000001           
         H18       1.0000    0.27200   0.11740   0.26320   Biso      1.000     H          0.10519   
         H19       1.0000    0.14540   0.24470   0.63370   Biso      1.000     H          0.106768  
         H20       1.0000    0.27200   0.88260   0.76320   Biso      1.000     H          0.10519500000000001           
         H21       1.0000    0.17630   0.96850   0.75790   Biso      1.000     H          0.10475599999999999           
         H22       1.0000    0.67630   0.46850   0.75790   Biso      1.000     H          0.10475599999999999           
         H23       1.0000    0.77200   0.61740   0.26320   Biso      1.000     H          0.10519500000000001           
         H24       1.0000    0.72800   0.88260   0.73680   Biso      1.000     H          0.105191  
         O1        1.0000    0.92339   0.01780   0.63140   Biso      1.000     O          -0.588098           
         O2        1.0000    0.04754   0.13530   0.51310   Biso      1.000     O          -0.611696           
         O3        1.0000    0.07661   0.98220   0.36860   Biso      1.000     O          -0.588097           
         O4        1.0000    0.95246   0.86470   0.48690   Biso      1.000     O          -0.611697           
         O5        1.0000    0.04754   0.86470   0.01310   Biso      1.000     O          -0.611697           
         O6        1.0000    0.42339   0.51780   0.63140   Biso      1.000     O          -0.588097           
         O7        1.0000    0.45246   0.63530   0.98690   Biso      1.000     O          -0.611696           
         O8        1.0000    0.95246   0.13530   0.98690   Biso      1.000     O          -0.611697           
         O9        1.0000    0.92339   0.98220   0.13140   Biso      1.000     O          -0.588098           
         O10       1.0000    0.57661   0.48220   0.36860   Biso      1.000     O          -0.588098           
         O11       1.0000    0.54754   0.63530   0.51310   Biso      1.000     O          -0.611697           
         O12       1.0000    0.57661   0.51780   0.86860   Biso      1.000     O          -0.588098           
         O13       1.0000    0.54754   0.36470   0.01310   Biso      1.000     O          -0.611697           
         O14       1.0000    0.45246   0.36470   0.48690   Biso      1.000     O          -0.611696           
         O15       1.0000    0.42339   0.48220   0.13140   Biso      1.000     O          -0.588097           
         O16       1.0000    0.07661   0.01780   0.86860   Biso      1.000     O          -0.588098           
         Zn1       1.0000    0.50000   0.38397   0.25000   Biso      1.000     Zn          1.112039  
         Zn2       1.0000    0.00000   0.11603   0.75000   Biso      1.000     Zn          1.112039  
         Zn3       1.0000    0.50000   0.61603   0.75000   Biso      1.000     Zn          1.11204   
         Zn4       1.0000    0.00000   0.88397   0.25000   Biso      1.000     Zn          1.11204 