
##########################################################################
#               Crystallographic Information Format file
#               Produced by PyCifRW module
#
#  This is a CIF file.  CIF has been adopted by the International
#  Union of Crystallography as the standard for data archiving and
#  transmission.
#
#  For information on this file format, follow the CIF links at
#  http://www.iucr.org
##########################################################################

data_image0

_cell_length_a                          9.8905
_cell_length_b                          16.8809
_cell_length_c                          7.2031
_cell_angle_alpha                       90
_cell_angle_beta                        70.7143
_cell_angle_gamma                       90
_symmetry_space_group_name_H-M          'P 1'
_symmetry_int_tables_number             1
loop_
  _symmetry_equiv_pos_as_xyz
         'x, y, z' 
loop_
  _atom_site_label
  _atom_site_occupancy
  _atom_site_fract_x
  _atom_site_fract_y
  _atom_site_fract_z
  _atom_site_thermal_displace_type
  _atom_site_B_iso_or_equiv
  _atom_site_type_symbol
  _atom_site_charge
         Bi1       1.0000    0.77842   0.45928   0.02644   Biso      1.000     Bi          1.575448  
         Bi2       1.0000    0.77842   0.04072   0.52644   Biso      1.000     Bi          1.578183  
         Bi3       1.0000    0.22158   0.95928   0.47356   Biso      1.000     Bi          1.574278  
         Bi4       1.0000    0.22158   0.54072   0.97356   Biso      1.000     Bi          1.5774489999999999  
         C1        1.0000    0.71526   0.88287   0.97879   Biso      1.000     C          0.126921  
         C2        1.0000    0.38875   0.24612   0.91791   Biso      1.000     C          0.102998  
         C3        1.0000    0.39928   0.16222   0.90819   Biso      1.000     C          -0.11233800000000001          
         C4        1.0000    0.28474   0.11713   0.02121   Biso      1.000     C          0.174323  
         C5        1.0000    0.17009   0.15146   0.16771   Biso      1.000     C          -0.111303           
         C6        1.0000    0.06238   0.10246   0.30765   Biso      1.000     C          0.5339189999999999  
         C7        1.0000    0.52597   0.12283   0.76923   Biso      1.000     C          0.564955  
         C8        1.0000    0.25467   0.37189   0.05922   Biso      1.000     C          0.5747260000000001  
         C9        1.0000    0.73530   0.71677   0.95103   Biso      1.000     C          -0.15546400000000002          
         C10       1.0000    0.83987   0.73487   0.31967   Biso      1.000     C          0.04948   
         C11       1.0000    0.73530   0.78323   0.45103   Biso      1.000     C          -0.141794           
         C12       1.0000    0.61125   0.74612   0.58209   Biso      1.000     C          0.103209  
         C13       1.0000    0.60072   0.66222   0.59181   Biso      1.000     C          -0.11039500000000001          
         C14       1.0000    0.71526   0.61713   0.47879   Biso      1.000     C          0.174742  
         C15       1.0000    0.82991   0.65146   0.33229   Biso      1.000     C          -0.110722           
         C16       1.0000    0.93762   0.60246   0.19235   Biso      1.000     C          0.53291   
         C17       1.0000    0.47403   0.62283   0.73077   Biso      1.000     C          0.565006  
         C18       1.0000    0.74533   0.87189   0.44078   Biso      1.000     C          0.573923  
         C19       1.0000    0.60072   0.83778   0.09181   Biso      1.000     C          -0.100358           
         C20       1.0000    0.16013   0.23487   0.18033   Biso      1.000     C          0.051926  
         C21       1.0000    0.26470   0.28323   0.04897   Biso      1.000     C          -0.14088599999999998          
         C22       1.0000    0.83987   0.76513   0.81967   Biso      1.000     C          0.095403  
         C23       1.0000    0.25467   0.12811   0.55922   Biso      1.000     C          0.568561  
         C24       1.0000    0.74533   0.62811   0.94078   Biso      1.000     C          0.568244  
         C25       1.0000    0.47403   0.87717   0.23077   Biso      1.000     C          0.57081   
         C26       1.0000    0.93762   0.89754   0.69235   Biso      1.000     C          0.532708  
         C27       1.0000    0.61125   0.75388   0.08209   Biso      1.000     C          0.111147  
         C28       1.0000    0.16013   0.26513   0.68033   Biso      1.000     C          0.047182999999999996          
         C29       1.0000    0.26470   0.21677   0.54897   Biso      1.000     C          -0.154718           
         C30       1.0000    0.38875   0.25388   0.41791   Biso      1.000     C          0.14770999999999998           
         C31       1.0000    0.28474   0.38287   0.52121   Biso      1.000     C          0.12140899999999999           
         C32       1.0000    0.39928   0.33778   0.40819   Biso      1.000     C          -0.10911400000000002          
         C33       1.0000    0.06238   0.39754   0.80765   Biso      1.000     C          0.534378  
         C34       1.0000    0.52597   0.37717   0.26923   Biso      1.000     C          0.5654939999999999  
         C35       1.0000    0.82991   0.84854   0.83229   Biso      1.000     C          -0.10968199999999999          
         C36       1.0000    0.17009   0.34854   0.66771   Biso      1.000     C          -0.097648           
         O1        1.0000    0.84780   0.58170   0.84450   Biso      1.000     O          -0.580114           
         O2        1.0000    0.06650   0.62520   0.19070   Biso      1.000     O          -0.443935           
         O3        1.0000    0.89690   0.52200   0.19410   Biso      1.000     O          -0.5562090000000001           
         O4        1.0000    0.84780   0.91830   0.34450   Biso      1.000     O          -0.583515           
         O5        1.0000    0.65200   0.91600   0.56670   Biso      1.000     O          -0.542065           
         O6        1.0000    0.38700   0.65800   0.87970   Biso      1.000     O          -0.5519689999999999           
         O7        1.0000    0.06650   0.87480   0.69070   Biso      1.000     O          -0.44489399999999996          
         O8        1.0000    0.89690   0.97800   0.69410   Biso      1.000     O          -0.555926           
         O9        1.0000    0.65200   0.58400   0.06670   Biso      1.000     O          -0.534605           
         O10       1.0000    0.93350   0.37480   0.80930   Biso      1.000     O          -0.444679           
         O11       1.0000    0.45760   0.95360   0.21110   Biso      1.000     O          -0.540605           
         O12       1.0000    0.54240   0.04640   0.78890   Biso      1.000     O          -0.534034           
         O13       1.0000    0.61300   0.15800   0.62030   Biso      1.000     O          -0.552408           
         O14       1.0000    0.15220   0.41830   0.15550   Biso      1.000     O          -0.583329           
         O15       1.0000    0.10310   0.02200   0.30590   Biso      1.000     O          -0.556866           
         O16       1.0000    0.93350   0.12520   0.30930   Biso      1.000     O          -0.44301199999999996          
         O17       1.0000    0.45760   0.54640   0.71110   Biso      1.000     O          -0.533514           
         O18       1.0000    0.54240   0.45360   0.28890   Biso      1.000     O          -0.533535           
         O19       1.0000    0.61300   0.34200   0.12030   Biso      1.000     O          -0.558894           
         O20       1.0000    0.34800   0.08400   0.43330   Biso      1.000     O          -0.535755           
         O21       1.0000    0.15220   0.08170   0.65550   Biso      1.000     O          -0.573883           
         O22       1.0000    0.10310   0.47800   0.80590   Biso      1.000     O          -0.556473           
         O23       1.0000    0.38700   0.84200   0.37970   Biso      1.000     O          -0.560523           
         O24       1.0000    0.34800   0.41600   0.93330   Biso      1.000     O          -0.542283 