
##########################################################################
#               Crystallographic Information Format file
#               Produced by PyCifRW module
#
#  This is a CIF file.  CIF has been adopted by the International
#  Union of Crystallography as the standard for data archiving and
#  transmission.
#
#  For information on this file format, follow the CIF links at
#  http://www.iucr.org
##########################################################################

data_image0

_cell_length_a                          10.628
_cell_length_b                          12.127
_cell_length_c                          25.055
_cell_angle_alpha                       90
_cell_angle_beta                        90
_cell_angle_gamma                       90.23
_symmetry_space_group_name_H-M          'P 1'
_symmetry_int_tables_number             1
loop_
  _symmetry_equiv_pos_as_xyz
         'x, y, z' 
loop_
  _atom_site_label
  _atom_site_occupancy
  _atom_site_fract_x
  _atom_site_fract_y
  _atom_site_fract_z
  _atom_site_thermal_displace_type
  _atom_site_B_iso_or_equiv
  _atom_site_type_symbol
  _atom_site_charge
         Bi1       1.0000    0.86000   0.07803   0.00566   Biso      1.000     Bi          0.9106989999999999  
         Bi2       1.0000    0.52419   0.40790   0.63307   Biso      1.000     Bi          1.469136  
         Bi3       1.0000    0.51431   0.09681   0.62870   Biso      1.000     Bi          1.2958120000000002  
         Bi4       1.0000    0.36022   0.41591   0.48616   Biso      1.000     Bi          1.335482  
         Bi5       1.0000    0.64937   0.26576   0.51436   Biso      1.000     Bi          1.3417649999999999  
         Bi6       1.0000    0.36000   0.07803   0.49434   Biso      1.000     Bi          0.9264370000000001  
         Bi7       1.0000    0.97581   0.59210   0.13307   Biso      1.000     Bi          1.469947  
         Bi8       1.0000    0.02218   0.73224   0.87278   Biso      1.000     Bi          0.925795  
         Bi9       1.0000    0.98569   0.90319   0.12870   Biso      1.000     Bi          1.305493  
         Bi10      1.0000    0.13978   0.58409   0.98616   Biso      1.000     Bi          1.3377139999999998  
         Bi11      1.0000    0.85063   0.73424   0.01436   Biso      1.000     Bi          1.345628  
         Bi12      1.0000    0.14000   0.92197   0.99434   Biso      1.000     Bi          0.910101  
         Bi13      1.0000    0.47782   0.26776   0.37278   Biso      1.000     Bi          0.935349  
         Bi14      1.0000    0.52218   0.73224   0.62722   Biso      1.000     Bi          0.929026  
         Bi15      1.0000    0.47581   0.59210   0.36693   Biso      1.000     Bi          1.4694530000000001  
         Bi16      1.0000    0.86022   0.41591   0.01384   Biso      1.000     Bi          1.335732  
         Bi17      1.0000    0.01431   0.09681   0.87130   Biso      1.000     Bi          1.307607  
         Bi18      1.0000    0.97782   0.26776   0.12722   Biso      1.000     Bi          0.926019  
         Bi19      1.0000    0.14937   0.26576   0.98564   Biso      1.000     Bi          1.344545  
         Bi20      1.0000    0.64000   0.92197   0.50566   Biso      1.000     Bi          0.9106360000000001  
         Bi21      1.0000    0.35063   0.73424   0.48564   Biso      1.000     Bi          1.346542  
         Bi22      1.0000    0.63978   0.58409   0.51384   Biso      1.000     Bi          1.335667  
         Bi23      1.0000    0.48569   0.90319   0.37130   Biso      1.000     Bi          1.296282  
         Bi24      1.0000    0.02419   0.40790   0.86693   Biso      1.000     Bi          1.469718  
         C1        1.0000    0.47600   0.83310   0.10340   Biso      1.000     C          -0.137128           
         C2        1.0000    0.63400   0.58500   0.87210   Biso      1.000     C          -0.022886           
         C3        1.0000    0.31000   0.46230   0.88170   Biso      1.000     C          0.5589109999999999  
         C4        1.0000    0.54600   0.62790   0.72860   Biso      1.000     C          0.553403  
         C5        1.0000    0.42700   0.51070   0.85930   Biso      1.000     C          -0.02575  
         C6        1.0000    0.52600   0.53400   0.89370   Biso      1.000     C          -0.11810699999999999          
         C7        1.0000    0.43800   0.53810   0.80560   Biso      1.000     C          -0.101607           
         C8        1.0000    0.54060   0.59040   0.78590   Biso      1.000     C          -0.002649           
         C9        1.0000    0.64200   0.61520   0.81770   Biso      1.000     C          -0.102602           
         C10       1.0000    0.73600   0.62070   0.91050   Biso      1.000     C          0.574228  
         C11       1.0000    0.99310   0.75820   0.29140   Biso      1.000     C          -0.01461  
         C12       1.0000    0.00800   0.72180   0.23410   Biso      1.000     C          0.5756399999999999  
         C13       1.0000    0.09200   0.81940   0.31410   Biso      1.000     C          -0.118467           
         C14       1.0000    0.08500   0.85390   0.36570   Biso      1.000     C          -0.015078           
         C15       1.0000    0.89000   0.73320   0.31970   Biso      1.000     C          -0.11341  
         C16       1.0000    0.75300   0.75550   0.40170   Biso      1.000     C          0.603626  
         C17       1.0000    0.97600   0.83310   0.39660   Biso      1.000     C          -0.137503           
         C18       1.0000    0.87500   0.77520   0.37140   Biso      1.000     C          -0.006404000000000001         
         C19       1.0000    0.81000   0.46230   0.61830   Biso      1.000     C          0.559351  
         C20       1.0000    0.25300   0.75550   0.09830   Biso      1.000     C          0.603002  
         C21       1.0000    0.19210   0.90950   0.39260   Biso      1.000     C          0.600283  
         C22       1.0000    0.39000   0.73320   0.18030   Biso      1.000     C          -0.113803           
         C23       1.0000    0.07300   0.48930   0.35930   Biso      1.000     C          -0.025789999999999997         
         C24       1.0000    0.58500   0.85390   0.13430   Biso      1.000     C          -0.014787999999999999         
         C25       1.0000    0.80790   0.09050   0.60740   Biso      1.000     C          0.599921  
         C26       1.0000    0.99200   0.27820   0.76590   Biso      1.000     C          0.5755560000000001  
         C27       1.0000    0.90800   0.18060   0.68590   Biso      1.000     C          -0.118426           
         C28       1.0000    0.91500   0.14610   0.63430   Biso      1.000     C          -0.01475  
         C29       1.0000    0.00690   0.24180   0.70860   Biso      1.000     C          -0.014594999999999999         
         C30       1.0000    0.11000   0.26680   0.68030   Biso      1.000     C          -0.113353           
         C31       1.0000    0.24700   0.24450   0.59830   Biso      1.000     C          0.603536  
         C32       1.0000    0.02400   0.16690   0.60340   Biso      1.000     C          -0.137659           
         C33       1.0000    0.12500   0.22480   0.62860   Biso      1.000     C          -0.006566           
         C34       1.0000    0.19000   0.53770   0.38170   Biso      1.000     C          0.559574  
         C35       1.0000    0.95400   0.37210   0.22860   Biso      1.000     C          0.5525140000000001  
         C36       1.0000    0.04600   0.62790   0.77140   Biso      1.000     C          0.552597  
         C37       1.0000    0.97400   0.46600   0.39370   Biso      1.000     C          -0.11910499999999999          
         C38       1.0000    0.06200   0.46190   0.30560   Biso      1.000     C          -0.101315           
         C39       1.0000    0.95940   0.40960   0.28590   Biso      1.000     C          -0.002326           
         C40       1.0000    0.85800   0.38480   0.31770   Biso      1.000     C          -0.101475           
         C41       1.0000    0.86600   0.41500   0.37210   Biso      1.000     C          -0.023025           
         C42       1.0000    0.76400   0.37930   0.41050   Biso      1.000     C          0.5745100000000001  
         C43       1.0000    0.69210   0.90950   0.10740   Biso      1.000     C          0.599964  
         C44       1.0000    0.50800   0.72180   0.26590   Biso      1.000     C          0.575856  
         C45       1.0000    0.59200   0.81940   0.18590   Biso      1.000     C          -0.11890099999999999          
         C46       1.0000    0.49310   0.75820   0.20860   Biso      1.000     C          -0.014758000000000002         
         C47       1.0000    0.92700   0.51070   0.64070   Biso      1.000     C          -0.025869           
         C48       1.0000    0.37500   0.77520   0.12860   Biso      1.000     C          -0.006368           
         C49       1.0000    0.93800   0.53810   0.69440   Biso      1.000     C          -0.101249           
         C50       1.0000    0.26400   0.37930   0.08950   Biso      1.000     C          0.574002  
         C51       1.0000    0.36600   0.41500   0.12790   Biso      1.000     C          -0.022828           
         C52       1.0000    0.02600   0.53400   0.60630   Biso      1.000     C          -0.11916099999999999          
         C53       1.0000    0.35800   0.38480   0.18230   Biso      1.000     C          -0.102383           
         C54       1.0000    0.45940   0.40960   0.21410   Biso      1.000     C          -0.0026030000000000003        
         C55       1.0000    0.56200   0.46190   0.19440   Biso      1.000     C          -0.102114           
         C56       1.0000    0.57300   0.48930   0.14070   Biso      1.000     C          -0.025581           
         C57       1.0000    0.45400   0.37210   0.27140   Biso      1.000     C          0.553529  
         C58       1.0000    0.69000   0.53770   0.11830   Biso      1.000     C          0.5591119999999999  
         C59       1.0000    0.62500   0.22480   0.87140   Biso      1.000     C          -0.006357           
         C60       1.0000    0.52400   0.16690   0.89660   Biso      1.000     C          -0.137129           
         C61       1.0000    0.47400   0.46600   0.10630   Biso      1.000     C          -0.11811600000000001          
         C62       1.0000    0.61000   0.26680   0.81970   Biso      1.000     C          -0.113646           
         C63       1.0000    0.74700   0.24450   0.90170   Biso      1.000     C          0.602973  
         C64       1.0000    0.14200   0.61520   0.68230   Biso      1.000     C          -0.10197  
         C65       1.0000    0.13400   0.58500   0.62790   Biso      1.000     C          -0.02298  
         C66       1.0000    0.23600   0.62070   0.58950   Biso      1.000     C          0.573659  
         C67       1.0000    0.30790   0.09050   0.89260   Biso      1.000     C          0.600003  
         C68       1.0000    0.04060   0.59040   0.71410   Biso      1.000     C          -0.002305           
         C69       1.0000    0.40800   0.18060   0.81410   Biso      1.000     C          -0.118773           
         C70       1.0000    0.41500   0.14610   0.86570   Biso      1.000     C          -0.014815           
         C71       1.0000    0.50690   0.24180   0.79140   Biso      1.000     C          -0.014641           
         C72       1.0000    0.49200   0.27820   0.73410   Biso      1.000     C          0.575655  
         H1        1.0000    0.82870   0.68760   0.30510   Biso      1.000     H          0.133492  
         H2        1.0000    0.28770   0.34930   0.19590   Biso      1.000     H          0.133173  
         H3        1.0000    0.62720   0.48010   0.21740   Biso      1.000     H          0.125635  
         H4        1.0000    0.47890   0.48330   0.07020   Biso      1.000     H          0.13392300000000001           
         H5        1.0000    0.52980   0.14390   0.93190   Biso      1.000     H          0.133378  
         H6        1.0000    0.67130   0.31240   0.80510   Biso      1.000     H          0.133476  
         H7        1.0000    0.33670   0.16370   0.79390   Biso      1.000     H          0.125661  
         H8        1.0000    0.21230   0.65070   0.69590   Biso      1.000     H          0.1333    
         H9        1.0000    0.02110   0.51670   0.57020   Biso      1.000     H          0.133655  
         H10       1.0000    0.97020   0.85610   0.43190   Biso      1.000     H          0.133279  
         H11       1.0000    0.16330   0.83630   0.29390   Biso      1.000     H          0.125828  
         H12       1.0000    0.87280   0.51990   0.71740   Biso      1.000     H          0.125704  
         H13       1.0000    0.37280   0.51990   0.78260   Biso      1.000     H          0.125622  
         H14       1.0000    0.71230   0.65070   0.80410   Biso      1.000     H          0.133168  
         H15       1.0000    0.83670   0.16370   0.70610   Biso      1.000     H          0.125869  
         H16       1.0000    0.17130   0.31240   0.69490   Biso      1.000     H          0.13353299999999999           
         H17       1.0000    0.02980   0.14390   0.56810   Biso      1.000     H          0.133076  
         H18       1.0000    0.12720   0.48010   0.28260   Biso      1.000     H          0.125718  
         H19       1.0000    0.97890   0.48330   0.42980   Biso      1.000     H          0.133743  
         H20       1.0000    0.66330   0.83630   0.20610   Biso      1.000     H          0.12573199999999998           
         H21       1.0000    0.32870   0.68760   0.19490   Biso      1.000     H          0.133435  
         H22       1.0000    0.47020   0.85610   0.06810   Biso      1.000     H          0.133407  
         H23       1.0000    0.52110   0.51670   0.92980   Biso      1.000     H          0.133873  
         H24       1.0000    0.78770   0.34930   0.30410   Biso      1.000     H          0.133279  
         O1        1.0000    0.29600   0.44660   0.93180   Biso      1.000     O          -0.580808           
         O2        1.0000    0.58100   0.76390   0.29700   Biso      1.000     O          -0.582221           
         O3        1.0000    0.21240   0.65920   0.09360   Biso      1.000     O          -0.609399           
         O4        1.0000    0.19550   0.84160   0.08350   Biso      1.000     O          -0.595166           
         O5        1.0000    0.22310   0.43960   0.84720   Biso      1.000     O          -0.492263           
         O6        1.0000    0.63300   0.69140   0.71210   Biso      1.000     O          -0.49620200000000003          
         O7        1.0000    0.78210   0.94200   0.13870   Biso      1.000     O          -0.608535           
         O8        1.0000    0.73900   0.58310   0.95710   Biso      1.000     O          -0.558003           
         O9        1.0000    0.81160   0.69750   0.89530   Biso      1.000     O          -0.5721189999999999           
         O10       1.0000    0.97640   0.95040   0.04550   Biso      1.000     O          -0.7573479999999999           
         O11       1.0000    0.42900   0.64770   0.28140   Biso      1.000     O          -0.539188           
         O12       1.0000    0.91630   0.74860   0.09830   Biso      1.000     O          -0.8032159999999999           
         O13       1.0000    0.02600   0.77050   0.97450   Biso      1.000     O          -0.8729540000000001           
         O14       1.0000    0.45760   0.59590   0.69610   Biso      1.000     O          -0.54687  
         O15       1.0000    0.69600   0.92650   0.05920   Biso      1.000     O          -0.584942           
         O16       1.0000    0.52360   0.04960   0.54550   Biso      1.000     O          -0.755931           
         O17       1.0000    0.55060   0.41790   0.52640   Biso      1.000     O          -0.79206  
         O18       1.0000    0.94940   0.58210   0.02640   Biso      1.000     O          -0.792629           
         O19       1.0000    0.91900   0.23610   0.79700   Biso      1.000     O          -0.582992           
         O20       1.0000    0.28760   0.34080   0.59360   Biso      1.000     O          -0.60875  
         O21       1.0000    0.30450   0.15840   0.58350   Biso      1.000     O          -0.595707           
         O22       1.0000    0.27690   0.56040   0.34720   Biso      1.000     O          -0.491878           
         O23       1.0000    0.20400   0.55340   0.43180   Biso      1.000     O          -0.5805359999999999           
         O24       1.0000    0.06800   0.58460   0.90710   Biso      1.000     O          -0.7755850000000001           
         O25       1.0000    0.86700   0.30860   0.21210   Biso      1.000     O          -0.496436           
         O26       1.0000    0.76100   0.41690   0.45710   Biso      1.000     O          -0.5566399999999999           
         O27       1.0000    0.68840   0.30250   0.39530   Biso      1.000     O          -0.574051           
         O28       1.0000    0.07100   0.35230   0.78140   Biso      1.000     O          -0.5390159999999999           
         O29       1.0000    0.71790   0.05800   0.63870   Biso      1.000     O          -0.606903           
         O30       1.0000    0.58370   0.25140   0.59830   Biso      1.000     O          -0.802776           
         O31       1.0000    0.47400   0.22950   0.47450   Biso      1.000     O          -0.8740709999999999           
         O32       1.0000    0.04240   0.40410   0.19610   Biso      1.000     O          -0.547218           
         O33       1.0000    0.56800   0.58460   0.59290   Biso      1.000     O          -0.7750670000000001           
         O34       1.0000    0.70400   0.55340   0.06820   Biso      1.000     O          -0.580576           
         O35       1.0000    0.92900   0.64770   0.21860   Biso      1.000     O          -0.539042           
         O36       1.0000    0.80400   0.07350   0.55920   Biso      1.000     O          -0.5845819999999999           
         O37       1.0000    0.05060   0.41790   0.97360   Biso      1.000     O          -0.792247           
         O38       1.0000    0.97400   0.22950   0.02550   Biso      1.000     O          -0.873259           
         O39       1.0000    0.08370   0.25140   0.90170   Biso      1.000     O          -0.803284           
         O40       1.0000    0.21790   0.05800   0.86130   Biso      1.000     O          -0.608462           
         O41       1.0000    0.02360   0.04960   0.95450   Biso      1.000     O          -0.7570899999999999           
         O42       1.0000    0.18840   0.30250   0.10470   Biso      1.000     O          -0.572047           
         O43       1.0000    0.26100   0.41690   0.04290   Biso      1.000     O          -0.558118           
         O44       1.0000    0.54240   0.40410   0.30390   Biso      1.000     O          -0.546796           
         O45       1.0000    0.36700   0.30860   0.28790   Biso      1.000     O          -0.496821           
         O46       1.0000    0.77690   0.56040   0.15280   Biso      1.000     O          -0.492267           
         O47       1.0000    0.80450   0.15840   0.91650   Biso      1.000     O          -0.595494           
         O48       1.0000    0.78760   0.34080   0.90640   Biso      1.000     O          -0.609218           
         O49       1.0000    0.41900   0.23610   0.70300   Biso      1.000     O          -0.582337           
         O50       1.0000    0.57100   0.35230   0.71860   Biso      1.000     O          -0.539062           
         O51       1.0000    0.30400   0.07350   0.94080   Biso      1.000     O          -0.584792           
         O52       1.0000    0.93200   0.41540   0.09290   Biso      1.000     O          -0.775439           
         O53       1.0000    0.08100   0.76390   0.20300   Biso      1.000     O          -0.582728           
         O54       1.0000    0.71240   0.65920   0.40640   Biso      1.000     O          -0.6088779999999999           
         O55       1.0000    0.69550   0.84160   0.41650   Biso      1.000     O          -0.594408           
         O56       1.0000    0.72310   0.43960   0.65280   Biso      1.000     O          -0.49197799999999997          
         O57       1.0000    0.79600   0.44660   0.56820   Biso      1.000     O          -0.580581           
         O58       1.0000    0.13300   0.69140   0.78790   Biso      1.000     O          -0.496304           
         O59       1.0000    0.19600   0.92650   0.44080   Biso      1.000     O          -0.586205           
         O60       1.0000    0.95760   0.59590   0.80390   Biso      1.000     O          -0.5469970000000001           
         O61       1.0000    0.31160   0.69750   0.60470   Biso      1.000     O          -0.572588           
         O62       1.0000    0.47640   0.95040   0.45450   Biso      1.000     O          -0.75943  
         O63       1.0000    0.28210   0.94200   0.36130   Biso      1.000     O          -0.60632  
         O64       1.0000    0.41630   0.74860   0.40170   Biso      1.000     O          -0.802994           
         O65       1.0000    0.52600   0.77050   0.52550   Biso      1.000     O          -0.873016           
         O66       1.0000    0.44940   0.58210   0.47360   Biso      1.000     O          -0.792733           
         O67       1.0000    0.23900   0.58310   0.54290   Biso      1.000     O          -0.5575859999999999           
         O68       1.0000    0.43200   0.41540   0.40710   Biso      1.000     O          -0.776068 