
##########################################################################
#               Crystallographic Information Format file
#               Produced by PyCifRW module
#
#  This is a CIF file.  CIF has been adopted by the International
#  Union of Crystallography as the standard for data archiving and
#  transmission.
#
#  For information on this file format, follow the CIF links at
#  http://www.iucr.org
##########################################################################

data_image0

_cell_length_a                          33.237
_cell_length_b                          9.719
_cell_length_c                          18.423
_cell_angle_alpha                       90
_cell_angle_beta                        90.538
_cell_angle_gamma                       90
_symmetry_space_group_name_H-M          'P 1'
_symmetry_int_tables_number             1
loop_
  _symmetry_equiv_pos_as_xyz
         'x, y, z' 
loop_
  _atom_site_label
  _atom_site_occupancy
  _atom_site_fract_x
  _atom_site_fract_y
  _atom_site_fract_z
  _atom_site_thermal_displace_type
  _atom_site_B_iso_or_equiv
  _atom_site_type_symbol
  _atom_site_charge
         C1        1.0000    0.72070   0.12400   0.27080   Biso      1.000     C          0.0215    
         C2        1.0000    0.55150   0.50170   0.49680   Biso      1.000     C          0.063466  
         C3        1.0000    0.43220   0.00800   0.98290   Biso      1.000     C          0.036364999999999995          
         C4        1.0000    0.48580   0.50700   0.58860   Biso      1.000     C          -0.061145000000000005         
         C5        1.0000    0.12390   0.57300   0.77600   Biso      1.000     C          0.627428  
         C6        1.0000    0.51540   0.63990   0.40450   Biso      1.000     C          0.624572  
         C7        1.0000    0.29320   0.43780   0.80060   Biso      1.000     C          0.581443  
         C8        1.0000    0.52220   0.43780   0.61300   Biso      1.000     C          -0.0419   
         C9        1.0000    0.40190   0.85300   0.16610   Biso      1.000     C          0.6332479999999999  
         C10       1.0000    0.39900   0.06680   0.96530   Biso      1.000     C          -0.06738  
         C11       1.0000    0.16940   0.52800   0.77600   Biso      1.000     C          -0.039351           
         C12       1.0000    0.25050   0.46680   0.79100   Biso      1.000     C          -0.044114           
         C13       1.0000    0.40150   0.92800   0.09910   Biso      1.000     C          -0.042266000000000005         
         C14       1.0000    0.51810   0.56720   0.47830   Biso      1.000     C          -0.057231           
         C15       1.0000    0.52240   0.35760   0.68400   Biso      1.000     C          0.597616  
         C16       1.0000    0.39590   0.12960   0.89110   Biso      1.000     C          0.665223  
         C17       1.0000    0.69300   0.13400   0.81000   Biso      1.000     C          -0.015231           
         C18       1.0000    0.69300   0.86600   0.31000   Biso      1.000     C          -0.011479999999999999         
         C19       1.0000    0.68290   0.09300   0.25890   Biso      1.000     C          -0.028081000000000002         
         C20       1.0000    0.73640   0.89900   0.31200   Biso      1.000     C          0.021837  
         C21       1.0000    0.05660   0.06900   0.06680   Biso      1.000     C          0.033743  
         C22       1.0000    0.93570   0.56710   0.55230   Biso      1.000     C          0.010151  
         C23       1.0000    0.86730   0.44700   0.50710   Biso      1.000     C          0.063695  
         C24       1.0000    0.98470   0.94400   0.01910   Biso      1.000     C          -0.008806999999999999         
         C25       1.0000    0.86530   0.51000   0.57270   Biso      1.000     C          -0.054416           
         C26       1.0000    0.05150   0.99830   0.99680   Biso      1.000     C          0.061035  
         C27       1.0000    0.93220   0.49200   0.48290   Biso      1.000     C          0.036044  
         C28       1.0000    0.98580   0.99300   0.08860   Biso      1.000     C          -0.061903999999999994         
         C29       1.0000    0.36530   0.99000   0.07270   Biso      1.000     C          -0.054470000000000005         
         C30       1.0000    0.62390   0.92700   0.27600   Biso      1.000     C          0.627289  
         C31       1.0000    0.48470   0.55600   0.51910   Biso      1.000     C          -0.009625           
         C32       1.0000    0.43570   0.93290   0.05230   Biso      1.000     C          0.01031   
         C33       1.0000    0.68290   0.90700   0.75890   Biso      1.000     C          -0.001038           
         C34       1.0000    0.73640   0.10100   0.81200   Biso      1.000     C          0.016844  
         C35       1.0000    0.05660   0.93100   0.56680   Biso      1.000     C          0.027776  
         C36       1.0000    0.93570   0.43290   0.05230   Biso      1.000     C          0.010047  
         C37       1.0000    0.86730   0.55300   0.00710   Biso      1.000     C          0.063899  
         C38       1.0000    0.98470   0.05600   0.51910   Biso      1.000     C          -0.014977           
         C39       1.0000    0.86530   0.49000   0.07270   Biso      1.000     C          -0.05435  
         C40       1.0000    0.05150   0.00170   0.49680   Biso      1.000     C          0.06468600000000001           
         C41       1.0000    0.93220   0.50800   0.98290   Biso      1.000     C          0.035009  
         C42       1.0000    0.98580   0.00700   0.58860   Biso      1.000     C          -0.059773           
         C43       1.0000    0.62390   0.07300   0.77600   Biso      1.000     C          0.623138  
         C44       1.0000    0.01540   0.13990   0.40450   Biso      1.000     C          0.624724  
         C45       1.0000    0.79320   0.93780   0.80060   Biso      1.000     C          0.579397  
         C46       1.0000    0.02220   0.93780   0.61300   Biso      1.000     C          -0.041449           
         C47       1.0000    0.90190   0.35300   0.16610   Biso      1.000     C          0.63343   
         C48       1.0000    0.89900   0.56680   0.96530   Biso      1.000     C          -0.06726599999999999          
         C49       1.0000    0.66940   0.02800   0.77600   Biso      1.000     C          -0.043185           
         C50       1.0000    0.75050   0.96680   0.79100   Biso      1.000     C          -0.042071           
         C51       1.0000    0.90150   0.42800   0.09910   Biso      1.000     C          -0.042738           
         C52       1.0000    0.01810   0.06720   0.47830   Biso      1.000     C          -0.057266           
         C53       1.0000    0.02240   0.85760   0.68400   Biso      1.000     C          0.597308  
         C54       1.0000    0.89590   0.62960   0.89110   Biso      1.000     C          0.66503   
         C55       1.0000    0.22070   0.37600   0.77080   Biso      1.000     C          0.021511000000000002          
         C56       1.0000    0.19300   0.63400   0.81000   Biso      1.000     C          -0.011139           
         C57       1.0000    0.18290   0.40700   0.75890   Biso      1.000     C          -0.028201999999999998         
         C58       1.0000    0.23640   0.60100   0.81200   Biso      1.000     C          0.022069  
         C59       1.0000    0.55660   0.43100   0.56680   Biso      1.000     C          0.034277999999999996          
         C60       1.0000    0.36730   0.05300   0.00710   Biso      1.000     C          0.063737  
         C61       1.0000    0.01540   0.86010   0.90450   Biso      1.000     C          0.6244270000000001  
         C62       1.0000    0.72070   0.87600   0.77080   Biso      1.000     C          0.025555  
         C63       1.0000    0.02220   0.06220   0.11300   Biso      1.000     C          -0.041578           
         C64       1.0000    0.18290   0.59300   0.25890   Biso      1.000     C          -1.6e-05  
         C65       1.0000    0.23640   0.39900   0.31200   Biso      1.000     C          0.022003  
         C66       1.0000    0.55660   0.56900   0.06680   Biso      1.000     C          0.027881  
         C67       1.0000    0.43570   0.06710   0.55230   Biso      1.000     C          0.00923   
         C68       1.0000    0.36730   0.94700   0.50710   Biso      1.000     C          0.063047  
         C69       1.0000    0.79320   0.06220   0.30060   Biso      1.000     C          0.5813699999999999  
         C70       1.0000    0.36530   0.01000   0.57270   Biso      1.000     C          -0.054903           
         C71       1.0000    0.55150   0.49830   0.99680   Biso      1.000     C          0.06583   
         C72       1.0000    0.43220   0.99200   0.48290   Biso      1.000     C          0.034474  
         C73       1.0000    0.48580   0.49300   0.08860   Biso      1.000     C          -0.05874600000000001          
         C74       1.0000    0.19300   0.36600   0.31000   Biso      1.000     C          -0.017262           
         C75       1.0000    0.12390   0.42700   0.27600   Biso      1.000     C          0.620521  
         C76       1.0000    0.29320   0.56220   0.30060   Biso      1.000     C          0.579523  
         C77       1.0000    0.52220   0.56220   0.11300   Biso      1.000     C          -0.041495           
         C78       1.0000    0.40190   0.14700   0.66610   Biso      1.000     C          0.633458  
         C79       1.0000    0.39900   0.93320   0.46530   Biso      1.000     C          -0.067476           
         C80       1.0000    0.16940   0.47200   0.27600   Biso      1.000     C          -0.041641000000000004         
         C81       1.0000    0.25050   0.53320   0.29100   Biso      1.000     C          -0.042664           
         C82       1.0000    0.40150   0.07200   0.59910   Biso      1.000     C          -0.043115           
         C83       1.0000    0.51810   0.43280   0.97830   Biso      1.000     C          -0.057232000000000005         
         C84       1.0000    0.52240   0.64240   0.18400   Biso      1.000     C          0.597279  
         C85       1.0000    0.39590   0.87040   0.39110   Biso      1.000     C          0.6650020000000001  
         C86       1.0000    0.51540   0.36010   0.90450   Biso      1.000     C          0.6247    
         C87       1.0000    0.22070   0.62400   0.27080   Biso      1.000     C          0.025537  
         C88       1.0000    0.48470   0.44400   0.01910   Biso      1.000     C          -0.016074           
         C89       1.0000    0.89900   0.43320   0.46530   Biso      1.000     C          -0.067387           
         C90       1.0000    0.89590   0.37040   0.39110   Biso      1.000     C          0.665254  
         C91       1.0000    0.02240   0.14240   0.18400   Biso      1.000     C          0.597379  
         C92       1.0000    0.01810   0.93280   0.97830   Biso      1.000     C          -0.056915999999999994         
         C93       1.0000    0.90150   0.57200   0.59910   Biso      1.000     C          -0.042388           
         C94       1.0000    0.90190   0.64700   0.66610   Biso      1.000     C          0.633305  
         C95       1.0000    0.75050   0.03320   0.29100   Biso      1.000     C          -0.044193           
         C96       1.0000    0.66940   0.97200   0.27600   Biso      1.000     C          -0.039214           
         O1        1.0000    0.86930   0.32800   0.19720   Biso      1.000     O          -0.47454300000000005          
         O2        1.0000    0.98220   0.17450   0.38090   Biso      1.000     O          -0.534158           
         O3        1.0000    0.93640   0.31670   0.18910   Biso      1.000     O          -0.572601           
         O4        1.0000    0.92440   0.62050   0.84960   Biso      1.000     O          -0.590765           
         O5        1.0000    0.61270   0.16450   0.80270   Biso      1.000     O          -0.445416           
         O6        1.0000    0.99260   0.87880   0.72460   Biso      1.000     O          -0.537395           
         O7        1.0000    0.80750   0.84110   0.75670   Biso      1.000     O          -0.540483           
         O8        1.0000    0.60280   0.98640   0.22600   Biso      1.000     O          -0.574978           
         O9        1.0000    0.11270   0.66450   0.80270   Biso      1.000     O          -0.451908           
         O10       1.0000    0.81540   0.98550   0.33630   Biso      1.000     O          -0.515618           
         O11       1.0000    0.30750   0.65890   0.25670   Biso      1.000     O          -0.541081           
         O12       1.0000    0.49260   0.62120   0.22460   Biso      1.000     O          -0.537501           
         O13       1.0000    0.81540   0.01450   0.83630   Biso      1.000     O          -0.521349           
         O14       1.0000    0.11270   0.33550   0.30270   Biso      1.000     O          -0.446845           
         O15       1.0000    0.42440   0.87950   0.34960   Biso      1.000     O          -0.590751           
         O16       1.0000    0.43640   0.18330   0.68910   Biso      1.000     O          -0.572764           
         O17       1.0000    0.48220   0.32550   0.88090   Biso      1.000     O          -0.533989           
         O18       1.0000    0.36930   0.17200   0.69720   Biso      1.000     O          -0.474649           
         O19       1.0000    0.60280   0.01360   0.72600   Biso      1.000     O          -0.577941           
         O20       1.0000    0.54970   0.33630   0.87420   Biso      1.000     O          -0.501858           
         O21       1.0000    0.36480   0.81060   0.37660   Biso      1.000     O          -0.48616800000000004          
         O22       1.0000    0.55580   0.70410   0.19840   Biso      1.000     O          -0.46764700000000003          
         O23       1.0000    0.04970   0.16370   0.37420   Biso      1.000     O          -0.502921           
         O24       1.0000    0.42440   0.12050   0.84960   Biso      1.000     O          -0.5907   
         O25       1.0000    0.86480   0.68940   0.87660   Biso      1.000     O          -0.485788           
         O26       1.0000    0.54970   0.66370   0.37420   Biso      1.000     O          -0.502513           
         O27       1.0000    0.04970   0.83630   0.87420   Biso      1.000     O          -0.502346           
         O28       1.0000    0.86930   0.67200   0.69720   Biso      1.000     O          -0.47460600000000003          
         O29       1.0000    0.43640   0.81670   0.18910   Biso      1.000     O          -0.572425           
         O30       1.0000    0.48220   0.67450   0.38090   Biso      1.000     O          -0.533929           
         O31       1.0000    0.36930   0.82800   0.19720   Biso      1.000     O          -0.47469399999999995          
         O32       1.0000    0.05580   0.79590   0.69840   Biso      1.000     O          -0.467678           
         O33       1.0000    0.31540   0.51450   0.83630   Biso      1.000     O          -0.515832           
         O34       1.0000    0.36480   0.18940   0.87660   Biso      1.000     O          -0.48586  
         O35       1.0000    0.55580   0.29590   0.69840   Biso      1.000     O          -0.468236           
         O36       1.0000    0.98220   0.82550   0.88090   Biso      1.000     O          -0.534208           
         O37       1.0000    0.86480   0.31060   0.37660   Biso      1.000     O          -0.485842           
         O38       1.0000    0.10280   0.48640   0.22600   Biso      1.000     O          -0.574451           
         O39       1.0000    0.10280   0.51360   0.72600   Biso      1.000     O          -0.574678           
         O40       1.0000    0.49260   0.37880   0.72460   Biso      1.000     O          -0.5366390000000001           
         O41       1.0000    0.93640   0.68330   0.68910   Biso      1.000     O          -0.5724239999999999           
         O42       1.0000    0.92440   0.37950   0.34960   Biso      1.000     O          -0.590676           
         O43       1.0000    0.61270   0.83550   0.30270   Biso      1.000     O          -0.45218800000000003          
         O44       1.0000    0.31540   0.48550   0.33630   Biso      1.000     O          -0.522946           
         O45       1.0000    0.99260   0.12120   0.22460   Biso      1.000     O          -0.536802           
         O46       1.0000    0.80750   0.15890   0.25670   Biso      1.000     O          -0.537519           
         O47       1.0000    0.30750   0.34110   0.75670   Biso      1.000     O          -0.537387           
         O48       1.0000    0.05580   0.20410   0.19840   Biso      1.000     O          -0.46882799999999997          
         Zn1       1.0000    0.45896   0.75060   0.28967   Biso      1.000     Zn          0.967756  
         Zn2       1.0000    0.55534   0.79376   0.29322   Biso      1.000     Zn          0.866924  
         Zn3       1.0000    0.95896   0.74940   0.78967   Biso      1.000     Zn          0.9676520000000001  
         Zn4       1.0000    0.05534   0.29376   0.29322   Biso      1.000     Zn          0.865654  
         Zn5       1.0000    0.86268   0.20620   0.27978   Biso      1.000     Zn          0.8897    
         Zn6       1.0000    0.45896   0.24940   0.78967   Biso      1.000     Zn          0.967203  
         Zn7       1.0000    0.55534   0.20624   0.79322   Biso      1.000     Zn          0.8632559999999999  
         Zn8       1.0000    0.36268   0.29380   0.77978   Biso      1.000     Zn          0.889948  
         Zn9       1.0000    0.86268   0.79380   0.77978   Biso      1.000     Zn          0.889774  
         Zn10      1.0000    0.05534   0.70624   0.79322   Biso      1.000     Zn          0.8670629999999999  
         Zn11      1.0000    0.95896   0.25060   0.28967   Biso      1.000     Zn          0.967151  
         Zn12      1.0000    0.36268   0.70620   0.27978   Biso      1.000     Zn          0.889978 