
##########################################################################
#               Crystallographic Information Format file
#               Produced by PyCifRW module
#
#  This is a CIF file.  CIF has been adopted by the International
#  Union of Crystallography as the standard for data archiving and
#  transmission.
#
#  For information on this file format, follow the CIF links at
#  http://www.iucr.org
##########################################################################

data_image0

_cell_length_a                          6.9816
_cell_length_b                          15.9669
_cell_length_c                          15.9669
_cell_angle_alpha                       62.0867
_cell_angle_beta                        81.6192
_cell_angle_gamma                       98.3808
_symmetry_space_group_name_H-M          'P 1'
_symmetry_int_tables_number             1
loop_
  _symmetry_equiv_pos_as_xyz
         'x, y, z' 
loop_
  _atom_site_label
  _atom_site_occupancy
  _atom_site_fract_x
  _atom_site_fract_y
  _atom_site_fract_z
  _atom_site_thermal_displace_type
  _atom_site_B_iso_or_equiv
  _atom_site_type_symbol
  _atom_site_charge
         C1        1.0000    0.44200   0.29390   0.61060   Biso      1.000     C          0.12263099999999999           
         C2        1.0000    0.85190   0.90450   0.70610   Biso      1.000     C          0.12035   
         C3        1.0000    0.36650   0.02900   0.65000   Biso      1.000     C          0.586044  
         C4        1.0000    0.37190   0.75740   0.27270   Biso      1.000     C          0.46243599999999996           
         C5        1.0000    0.21490   0.67430   0.33870   Biso      1.000     C          -0.065332           
         C6        1.0000    0.40710   0.62350   0.45230   Biso      1.000     C          -0.021381999999999998         
         C7        1.0000    0.55800   0.70610   0.38940   Biso      1.000     C          0.122646  
         C8        1.0000    0.01650   0.65000   0.32100   Biso      1.000     C          0.583384  
         C9        1.0000    0.64460   0.27270   0.96990   Biso      1.000     C          0.460454  
         C10       1.0000    0.55360   0.33870   0.98700   Biso      1.000     C          -0.06485700000000001          
         C11       1.0000    0.85940   0.45230   0.92420   Biso      1.000     C          -0.022261000000000003         
         C12       1.0000    0.94740   0.38940   0.90450   Biso      1.000     C          0.122174  
         C13       1.0000    0.33750   0.32100   0.02900   Biso      1.000     C          0.582699  
         C14       1.0000    0.38550   0.03010   0.24260   Biso      1.000     C          0.46170900000000004           
         C15       1.0000    0.45940   0.01300   0.32570   Biso      1.000     C          -0.06687799999999999          
         C16       1.0000    0.21640   0.07580   0.37650   Biso      1.000     C          -0.022618           
         C17       1.0000    0.14810   0.09550   0.29390   Biso      1.000     C          0.12035   
         C18       1.0000    0.63350   0.97100   0.35000   Biso      1.000     C          0.5860350000000001  
         C19       1.0000    0.62810   0.24260   0.72730   Biso      1.000     C          0.462445  
         C20       1.0000    0.78510   0.32570   0.66130   Biso      1.000     C          -0.065337           
         C21       1.0000    0.78360   0.92420   0.62350   Biso      1.000     C          -0.022618           
         C22       1.0000    0.59290   0.37650   0.54770   Biso      1.000     C          -0.021365000000000002         
         C23       1.0000    0.54060   0.98700   0.67430   Biso      1.000     C          -0.06688  
         C24       1.0000    0.98350   0.35000   0.67900   Biso      1.000     C          0.583388  
         C25       1.0000    0.66250   0.67900   0.97100   Biso      1.000     C          0.582699  
         C26       1.0000    0.05260   0.61060   0.09550   Biso      1.000     C          0.122177  
         C27       1.0000    0.14060   0.54770   0.07580   Biso      1.000     C          -0.022262999999999998         
         C28       1.0000    0.44640   0.66130   0.01300   Biso      1.000     C          -0.064859           
         C29       1.0000    0.35540   0.72730   0.03010   Biso      1.000     C          0.460438  
         C30       1.0000    0.61450   0.96990   0.75740   Biso      1.000     C          0.461703  
         Cu1       1.0000    0.50000   0.00000   0.50000   Biso      1.000     Cu          0.649737  
         Cu2       1.0000    0.00000   0.50000   0.50000   Biso      1.000     Cu          0.650187  
         Cu3       1.0000    0.50000   0.50000   0.00000   Biso      1.000     Cu          0.649297  
         H1        1.0000    0.84580   0.91000   0.57780   Biso      1.000     H          0.115472  
         H2        1.0000    0.91670   0.59160   0.12450   Biso      1.000     H          0.111516  
         H3        1.0000    0.67490   0.71610   0.40840   Biso      1.000     H          0.111376  
         H4        1.0000    0.93580   0.51220   0.91000   Biso      1.000     H          0.115299  
         H5        1.0000    0.08330   0.40840   0.87550   Biso      1.000     H          0.11152100000000001           
         H6        1.0000    0.15420   0.09000   0.42220   Biso      1.000     H          0.11547400000000001           
         H7        1.0000    0.04120   0.12450   0.28390   Biso      1.000     H          0.112451  
         H8        1.0000    0.57640   0.42220   0.48780   Biso      1.000     H          0.11488399999999999           
         H9        1.0000    0.32510   0.28390   0.59160   Biso      1.000     H          0.111375  
         H10       1.0000    0.06420   0.48780   0.09000   Biso      1.000     H          0.11529600000000001           
         H11       1.0000    0.42360   0.57780   0.51220   Biso      1.000     H          0.11488399999999999           
         H12       1.0000    0.95880   0.87550   0.71610   Biso      1.000     H          0.11244100000000001           
         Ho1       1.0000    0.28915   0.06431   0.84704   Biso      1.000     Ho          2.045328  
         Ho2       1.0000    0.77516   0.91135   0.93569   Biso      1.000     Ho          2.049584  
         Ho3       1.0000    0.86381   0.15296   0.91135   Biso      1.000     Ho          2.0487439999999997  
         Ho4       1.0000    0.71085   0.93569   0.15296   Biso      1.000     Ho          2.045287  
         Ho5       1.0000    0.22484   0.08865   0.06431   Biso      1.000     Ho          2.049628  
         Ho6       1.0000    0.13619   0.84704   0.08865   Biso      1.000     Ho          2.048671  
         N1        1.0000    0.33610   0.57390   0.03630   Biso      1.000     N          -0.19333399999999998          
         N2        1.0000    0.15680   0.69794   0.07394   Biso      1.000     N          -0.373783           
         N3        1.0000    0.45886   0.22812   0.69794   Biso      1.000     N          -0.37245100000000003          
         N4        1.0000    0.37240   0.03630   0.38980   Biso      1.000     N          -0.192578           
         N5        1.0000    0.23074   0.07394   0.22812   Biso      1.000     N          -0.372517           
         N6        1.0000    0.76220   0.38980   0.57390   Biso      1.000     N          -0.19507  
         N7        1.0000    0.84320   0.30206   0.92606   Biso      1.000     N          -0.373788           
         N8        1.0000    0.23780   0.61020   0.42610   Biso      1.000     N          -0.195072           
         N9        1.0000    0.54114   0.77188   0.30206   Biso      1.000     N          -0.372444           
         N10       1.0000    0.62760   0.96370   0.61020   Biso      1.000     N          -0.192581           
         N11       1.0000    0.76926   0.92606   0.77188   Biso      1.000     N          -0.37251799999999996          
         N12       1.0000    0.66390   0.42610   0.96370   Biso      1.000     N          -0.193332           
         O1        1.0000    0.79594   0.82666   0.09814   Biso      1.000     O          -0.965392           
         O2        1.0000    0.62946   0.17727   0.81389   Biso      1.000     O          -0.644626           
         O3        1.0000    0.02400   0.29446   0.75636   Biso      1.000     O          -0.555403           
         O4        1.0000    0.10520   0.42870   0.61220   Biso      1.000     O          -0.540983           
         O5        1.0000    0.89408   0.09814   0.07520   Biso      1.000     O          -0.967408           
         O6        1.0000    0.71740   0.61220   0.95910   Biso      1.000     O          -0.5393399999999999           
         O7        1.0000    0.78036   0.75636   0.94918   Biso      1.000     O          -0.5561050000000001           
         O8        1.0000    0.96928   0.07520   0.82666   Biso      1.000     O          -0.981427           
         O9        1.0000    0.32017   0.00000   0.00000   Biso      1.000     O          -0.8811700000000001           
         O10       1.0000    0.67650   0.95910   0.42870   Biso      1.000     O          -0.541281           
         O11       1.0000    0.44335   0.81389   0.00884   Biso      1.000     O          -0.6449010000000001           
         O12       1.0000    0.72954   0.94918   0.29446   Biso      1.000     O          -0.5556770000000001           
         O13       1.0000    0.37054   0.82273   0.18611   Biso      1.000     O          -0.644608           
         O14       1.0000    0.03072   0.92480   0.17334   Biso      1.000     O          -0.981482           
         O15       1.0000    0.28260   0.38780   0.04090   Biso      1.000     O          -0.5393399999999999           
         O16       1.0000    0.21964   0.24364   0.05082   Biso      1.000     O          -0.5561189999999999           
         O17       1.0000    0.55665   0.18611   0.99116   Biso      1.000     O          -0.644913           
         O18       1.0000    0.10592   0.90186   0.92480   Biso      1.000     O          -0.967482           
         O19       1.0000    0.89480   0.57130   0.38780   Biso      1.000     O          -0.540987           
         O20       1.0000    0.97600   0.70554   0.24364   Biso      1.000     O          -0.555388           
         O21       1.0000    0.67983   0.00000   0.00000   Biso      1.000     O          -0.8812530000000001           
         O22       1.0000    0.20406   0.17334   0.90186   Biso      1.000     O          -0.965557           
         O23       1.0000    0.32350   0.04090   0.57130   Biso      1.000     O          -0.5412819999999999           
         O24       1.0000    0.27046   0.05082   0.70554   Biso      1.000     O          -0.555683           
         O25       1.0000    0.54781   0.99116   0.82273   Biso      1.000     O          -0.643846           
         O26       1.0000    0.45219   0.00884   0.17727   Biso      1.000     O          -0.643848           
         O27       1.0000    0.00000   0.00000   0.00000   Biso      1.000     O          -0.6405930000000001 