
##########################################################################
#               Crystallographic Information Format file
#               Produced by PyCifRW module
#
#  This is a CIF file.  CIF has been adopted by the International
#  Union of Crystallography as the standard for data archiving and
#  transmission.
#
#  For information on this file format, follow the CIF links at
#  http://www.iucr.org
##########################################################################

data_image0

_cell_length_a                          7.0012
_cell_length_b                          16.002
_cell_length_c                          16.002
_cell_angle_alpha                       62.0892
_cell_angle_beta                        81.6141
_cell_angle_gamma                       98.3859
_symmetry_space_group_name_H-M          'P 1'
_symmetry_int_tables_number             1
loop_
  _symmetry_equiv_pos_as_xyz
         'x, y, z' 
loop_
  _atom_site_label
  _atom_site_occupancy
  _atom_site_fract_x
  _atom_site_fract_y
  _atom_site_fract_z
  _atom_site_thermal_displace_type
  _atom_site_B_iso_or_equiv
  _atom_site_type_symbol
  _atom_site_charge
         C1        1.0000    0.44420   0.29460   0.61020   Biso      1.000     C          0.123188  
         C2        1.0000    0.01630   0.64880   0.32090   Biso      1.000     C          0.586546  
         C3        1.0000    0.55580   0.70540   0.38980   Biso      1.000     C          0.123189  
         C4        1.0000    0.40590   0.62310   0.45210   Biso      1.000     C          -0.026682           
         C5        1.0000    0.21480   0.67370   0.33890   Biso      1.000     C          -0.065076           
         C6        1.0000    0.37110   0.75660   0.27330   Biso      1.000     C          0.465656  
         C7        1.0000    0.36750   0.03030   0.64880   Biso      1.000     C          0.589849  
         C8        1.0000    0.85040   0.90480   0.70540   Biso      1.000     C          0.120902  
         C9        1.0000    0.78280   0.92480   0.62310   Biso      1.000     C          -0.024623           
         C10       1.0000    0.54110   0.98740   0.67370   Biso      1.000     C          -0.067062           
         C11       1.0000    0.61450   0.97010   0.75660   Biso      1.000     C          0.46551899999999996           
         C12       1.0000    0.85800   0.45210   0.92480   Biso      1.000     C          -0.026867000000000002         
         C13       1.0000    0.94560   0.38980   0.90480   Biso      1.000     C          0.12091800000000001           
         C14       1.0000    0.33720   0.32090   0.03030   Biso      1.000     C          0.585119  
         C15       1.0000    0.38550   0.02990   0.24340   Biso      1.000     C          0.465521  
         C16       1.0000    0.64440   0.27330   0.97010   Biso      1.000     C          0.46408999999999995           
         C17       1.0000    0.45890   0.01260   0.32630   Biso      1.000     C          -0.067062           
         C18       1.0000    0.14960   0.09520   0.29460   Biso      1.000     C          0.1209    
         C19       1.0000    0.63250   0.96970   0.35120   Biso      1.000     C          0.589845  
         C20       1.0000    0.62890   0.24340   0.72670   Biso      1.000     C          0.465656  
         C21       1.0000    0.78520   0.32630   0.66110   Biso      1.000     C          -0.065077           
         C22       1.0000    0.59410   0.37690   0.54790   Biso      1.000     C          -0.026677999999999997         
         C23       1.0000    0.98370   0.35120   0.67910   Biso      1.000     C          0.586547  
         C24       1.0000    0.35560   0.72670   0.02990   Biso      1.000     C          0.464091  
         C25       1.0000    0.44630   0.66110   0.01260   Biso      1.000     C          -0.065163           
         C26       1.0000    0.14200   0.54790   0.07520   Biso      1.000     C          -0.026869999999999998         
         C27       1.0000    0.05440   0.61020   0.09520   Biso      1.000     C          0.12091600000000001           
         C28       1.0000    0.66280   0.67910   0.96970   Biso      1.000     C          0.585114  
         C29       1.0000    0.21720   0.07520   0.37690   Biso      1.000     C          -0.024622           
         C30       1.0000    0.55370   0.33890   0.98740   Biso      1.000     C          -0.065162           
         Cu1       1.0000    0.50000   0.50000   0.00000   Biso      1.000     Cu          0.655692  
         Cu2       1.0000    0.00000   0.50000   0.50000   Biso      1.000     Cu          0.656605  
         Cu3       1.0000    0.50000   0.00000   0.50000   Biso      1.000     Cu          0.65601   
         Dy1       1.0000    0.28898   0.06436   0.84684   Biso      1.000     Dy          2.034597  
         Dy2       1.0000    0.22462   0.08880   0.06436   Biso      1.000     Dy          2.034694  
         Dy3       1.0000    0.71102   0.93564   0.15316   Biso      1.000     Dy          2.034608  
         Dy4       1.0000    0.86418   0.15316   0.91120   Biso      1.000     Dy          2.034248  
         Dy5       1.0000    0.77538   0.91120   0.93564   Biso      1.000     Dy          2.034669  
         Dy6       1.0000    0.13582   0.84684   0.08880   Biso      1.000     Dy          2.034272  
         H1        1.0000    0.06580   0.48830   0.08880   Biso      1.000     H          0.114686  
         H2        1.0000    0.84540   0.91120   0.57710   Biso      1.000     H          0.114247  
         H3        1.0000    0.95600   0.87510   0.71560   Biso      1.000     H          0.110672  
         H4        1.0000    0.42250   0.57710   0.51170   Biso      1.000     H          0.114853  
         H5        1.0000    0.93420   0.51170   0.91120   Biso      1.000     H          0.11468800000000001           
         H6        1.0000    0.08090   0.40930   0.87510   Biso      1.000     H          0.110577  
         H7        1.0000    0.15460   0.08880   0.42290   Biso      1.000     H          0.114247  
         H8        1.0000    0.04400   0.12490   0.28440   Biso      1.000     H          0.11067   
         H9        1.0000    0.57750   0.42290   0.48830   Biso      1.000     H          0.114854  
         H10       1.0000    0.32840   0.28440   0.59070   Biso      1.000     H          0.10955799999999999           
         H11       1.0000    0.67160   0.71560   0.40930   Biso      1.000     H          0.10955899999999999           
         H12       1.0000    0.91910   0.59070   0.12490   Biso      1.000     H          0.110576  
         N1        1.0000    0.45970   0.22920   0.69750   Biso      1.000     N          -0.374352           
         N2        1.0000    0.33750   0.57400   0.03590   Biso      1.000     N          -0.19432  
         N3        1.0000    0.37340   0.03590   0.39010   Biso      1.000     N          -0.195806           
         N4        1.0000    0.76350   0.39010   0.57400   Biso      1.000     N          -0.195493           
         N5        1.0000    0.23050   0.07330   0.22920   Biso      1.000     N          -0.373345           
         N6        1.0000    0.15720   0.69750   0.07330   Biso      1.000     N          -0.373052           
         N7        1.0000    0.84280   0.30250   0.92670   Biso      1.000     N          -0.37306  
         N8        1.0000    0.23650   0.60990   0.42600   Biso      1.000     N          -0.195495           
         N9        1.0000    0.54030   0.77080   0.30250   Biso      1.000     N          -0.37435  
         N10       1.0000    0.62660   0.96410   0.60990   Biso      1.000     N          -0.195805           
         N11       1.0000    0.76950   0.92670   0.77080   Biso      1.000     N          -0.373349           
         N12       1.0000    0.66250   0.42600   0.96410   Biso      1.000     N          -0.19431800000000002          
         O1        1.0000    0.67583   0.95963   0.42864   Biso      1.000     O          -0.541011           
         O2        1.0000    0.89324   0.09870   0.07628   Biso      1.000     O          -0.962197           
         O3        1.0000    0.63023   0.17851   0.81262   Biso      1.000     O          -0.641609           
         O4        1.0000    0.02301   0.29500   0.75607   Biso      1.000     O          -0.555702           
         O5        1.0000    0.10447   0.42864   0.61173   Biso      1.000     O          -0.540192           
         O6        1.0000    0.77908   0.75607   0.94893   Biso      1.000     O          -0.5547489999999999           
         O7        1.0000    0.44285   0.81262   0.00887   Biso      1.000     O          -0.640798           
         O8        1.0000    0.71620   0.61173   0.95963   Biso      1.000     O          -0.538896           
         O9        1.0000    0.79454   0.82502   0.09870   Biso      1.000     O          -0.9594469999999999           
         O10       1.0000    0.31923   0.00000   0.00000   Biso      1.000     O          -0.8804129999999999           
         O11       1.0000    0.96952   0.07628   0.82502   Biso      1.000     O          -0.9597690000000001           
         O12       1.0000    0.72801   0.94893   0.29500   Biso      1.000     O          -0.556265           
         O13       1.0000    0.28380   0.38827   0.04037   Biso      1.000     O          -0.538895           
         O14       1.0000    0.20546   0.17498   0.90130   Biso      1.000     O          -0.9594889999999999           
         O15       1.0000    0.22092   0.24393   0.05107   Biso      1.000     O          -0.554766           
         O16       1.0000    0.55715   0.18738   0.99113   Biso      1.000     O          -0.640803           
         O17       1.0000    0.03048   0.92372   0.17498   Biso      1.000     O          -0.959925           
         O18       1.0000    0.89553   0.57136   0.38827   Biso      1.000     O          -0.540194           
         O19       1.0000    0.97699   0.70500   0.24393   Biso      1.000     O          -0.5556939999999999           
         O20       1.0000    0.36977   0.82149   0.18738   Biso      1.000     O          -0.641606           
         O21       1.0000    0.10676   0.90130   0.92372   Biso      1.000     O          -0.9623280000000001           
         O22       1.0000    0.32417   0.04037   0.57136   Biso      1.000     O          -0.541014           
         O23       1.0000    0.27199   0.05107   0.70500   Biso      1.000     O          -0.5562699999999999           
         O24       1.0000    0.54828   0.99113   0.82149   Biso      1.000     O          -0.6417470000000001           
         O25       1.0000    0.68077   0.00000   0.00000   Biso      1.000     O          -0.8804559999999999           
         O26       1.0000    0.45172   0.00887   0.17851   Biso      1.000     O          -0.64175  
         O27       1.0000    0.00000   0.00000   0.00000   Biso      1.000     O          -0.65847 