
##########################################################################
#               Crystallographic Information Format file
#               Produced by PyCifRW module
#
#  This is a CIF file.  CIF has been adopted by the International
#  Union of Crystallography as the standard for data archiving and
#  transmission.
#
#  For information on this file format, follow the CIF links at
#  http://www.iucr.org
##########################################################################

data_image0

_cell_length_a                          7.3785
_cell_length_b                          11.7625
_cell_length_c                          14.4288
_cell_angle_alpha                       90
_cell_angle_beta                        90
_cell_angle_gamma                       98.999
_symmetry_space_group_name_H-M          'P 1'
_symmetry_int_tables_number             1
loop_
  _symmetry_equiv_pos_as_xyz
         'x, y, z' 
loop_
  _atom_site_label
  _atom_site_occupancy
  _atom_site_fract_x
  _atom_site_fract_y
  _atom_site_fract_z
  _atom_site_thermal_displace_type
  _atom_site_B_iso_or_equiv
  _atom_site_type_symbol
  _atom_site_charge
         C1        1.0000    0.22940   0.60760   0.87330   Biso      1.000     C          -0.004043           
         C2        1.0000    0.83380   0.56800   0.84920   Biso      1.000     C          0.008057  
         C3        1.0000    0.00690   0.81120   0.67300   Biso      1.000     C          0.035362  
         C4        1.0000    0.05170   0.46910   0.73220   Biso      1.000     C          -0.095998           
         C5        1.0000    0.30680   0.79870   0.77250   Biso      1.000     C          -0.11271800000000001          
         C6        1.0000    0.54100   0.87700   0.01520   Biso      1.000     C          0.079422  
         C7        1.0000    0.35420   0.87750   0.01350   Biso      1.000     C          0.085106  
         C8        1.0000    0.40270   0.07270   0.03540   Biso      1.000     C          0.08474   
         C9        1.0000    0.59030   0.07110   0.03760   Biso      1.000     C          0.085401  
         C10       1.0000    0.02040   0.21820   0.36540   Biso      1.000     C          0.029685000000000003          
         C11       1.0000    0.99310   0.18880   0.17300   Biso      1.000     C          0.040517000000000004          
         C12       1.0000    0.76690   0.35810   0.13560   Biso      1.000     C          0.004673  
         C13       1.0000    0.17290   0.39310   0.15780   Biso      1.000     C          0.010011  
         C14       1.0000    0.16620   0.43200   0.34920   Biso      1.000     C          0.013849  
         C15       1.0000    0.77060   0.39240   0.37330   Biso      1.000     C          0.002034  
         C16       1.0000    0.94830   0.53090   0.23220   Biso      1.000     C          -0.091299           
         C17       1.0000    0.69320   0.20130   0.27250   Biso      1.000     C          -0.10820199999999999          
         C18       1.0000    0.97960   0.78180   0.86540   Biso      1.000     C          0.023653999999999998          
         C19       1.0000    0.40970   0.92890   0.53760   Biso      1.000     C          0.084134  
         C20       1.0000    0.59730   0.92730   0.53540   Biso      1.000     C          0.083637  
         C21       1.0000    0.64580   0.12250   0.51350   Biso      1.000     C          0.086619  
         C22       1.0000    0.45900   0.12300   0.51520   Biso      1.000     C          0.080838  
         C23       1.0000    0.82710   0.60690   0.65780   Biso      1.000     C          0.005163  
         C24       1.0000    0.23310   0.64190   0.63560   Biso      1.000     C          -0.001773           
         H1        1.0000    0.41400   0.19380   0.50740   Biso      1.000     H          0.114977  
         H2        1.0000    0.72640   0.19300   0.50490   Biso      1.000     H          0.11656199999999999           
         H3        1.0000    0.64180   0.85610   0.54190   Biso      1.000     H          0.114907  
         H4        1.0000    0.32900   0.85850   0.54670   Biso      1.000     H          0.11073599999999999           
         H5        1.0000    0.58600   0.80620   0.00740   Biso      1.000     H          0.114416  
         H6        1.0000    0.27360   0.80700   0.00490   Biso      1.000     H          0.115996  
         H7        1.0000    0.35820   0.14390   0.04190   Biso      1.000     H          0.115513  
         H8        1.0000    0.67100   0.14150   0.04670   Biso      1.000     H          0.11137899999999999           
         Mn1       1.0000    0.50053   0.52418   0.50002   Biso      1.000     Mn          1.04157   
         Mn2       1.0000    0.02896   0.02693   0.52671   Biso      1.000     Mn          0.933953  
         Mn3       1.0000    0.49947   0.47582   0.00002   Biso      1.000     Mn          1.041247  
         Mn4       1.0000    0.97104   0.97307   0.02671   Biso      1.000     Mn          0.931364  
         N1        1.0000    0.05450   0.15880   0.42360   Biso      1.000     N          -0.4002   
         N2        1.0000    0.94550   0.84120   0.92360   Biso      1.000     N          -0.390702           
         N3        1.0000    0.98950   0.88700   0.62539   Biso      1.000     N          -0.39824  
         N4        1.0000    0.32310   0.62880   0.57305   Biso      1.000     N          -0.38022399999999995          
         N5        1.0000    0.71720   0.58060   0.60160   Biso      1.000     N          -0.367162           
         N6        1.0000    0.72380   0.52360   0.89940   Biso      1.000     N          -0.362688           
         N7        1.0000    0.32120   0.58150   0.93080   Biso      1.000     N          -0.373406           
         N8        1.0000    0.04440   0.37390   0.71380   Biso      1.000     N          -0.368671           
         N9        1.0000    0.43060   0.87100   0.77770   Biso      1.000     N          -0.356883           
         N10       1.0000    0.28260   0.97530   0.02418   Biso      1.000     N          -0.20657199999999998          
         N11       1.0000    0.71740   0.02470   0.52418   Biso      1.000     N          -0.20693899999999998          
         N12       1.0000    0.33800   0.02570   0.52763   Biso      1.000     N          -0.204691           
         N13       1.0000    0.01050   0.11300   0.12539   Biso      1.000     N          -0.405697           
         N14       1.0000    0.67690   0.37120   0.07305   Biso      1.000     N          -0.390637           
         N15       1.0000    0.28280   0.41940   0.10160   Biso      1.000     N          -0.377237           
         N16       1.0000    0.27620   0.47640   0.39940   Biso      1.000     N          -0.37262399999999996          
         N17       1.0000    0.67880   0.41850   0.43080   Biso      1.000     N          -0.38415  
         N18       1.0000    0.95560   0.62610   0.21380   Biso      1.000     N          -0.37809299999999996          
         N19       1.0000    0.56940   0.12900   0.27770   Biso      1.000     N          -0.364124           
         N20       1.0000    0.66200   0.97430   0.02763   Biso      1.000     N          -0.20463699999999999          
         Nb1       1.0000    0.94357   0.33979   0.25848   Biso      1.000     Nb          0.781663  
         Nb2       1.0000    0.05643   0.66021   0.75848   Biso      1.000     Nb          0.8204239999999999 