
##########################################################################
#               Crystallographic Information Format file
#               Produced by PyCifRW module
#
#  This is a CIF file.  CIF has been adopted by the International
#  Union of Crystallography as the standard for data archiving and
#  transmission.
#
#  For information on this file format, follow the CIF links at
#  http://www.iucr.org
##########################################################################

data_image0

_cell_length_a                          4.9213
_cell_length_b                          10.8011
_cell_length_c                          12.8097
_cell_angle_alpha                       91.3262
_cell_angle_beta                        101.075
_cell_angle_gamma                       83.0799
_symmetry_space_group_name_H-M          'P 1'
_symmetry_int_tables_number             1
loop_
  _symmetry_equiv_pos_as_xyz
         'x, y, z' 
loop_
  _atom_site_label
  _atom_site_occupancy
  _atom_site_fract_x
  _atom_site_fract_y
  _atom_site_fract_z
  _atom_site_thermal_displace_type
  _atom_site_B_iso_or_equiv
  _atom_site_type_symbol
  _atom_site_charge
         C1        1.0000    0.35982   0.01010   0.05024   Biso      1.000     C          0.021832  
         C2        1.0000    0.25239   0.40030   0.49498   Biso      1.000     C          -0.1561   
         C3        1.0000    0.33979   0.50860   0.46178   Biso      1.000     C          0.028216  
         C4        1.0000    0.56513   0.55570   0.52586   Biso      1.000     C          -0.149644           
         C5        1.0000    0.69595   0.49360   0.61770   Biso      1.000     C          0.078448  
         C6        1.0000    0.27307   0.09430   0.87374   Biso      1.000     C          0.096353  
         C7        1.0000    0.43059   0.01440   0.95058   Biso      1.000     C          -0.14897  
         C8        1.0000    0.13316   0.09110   0.06912   Biso      1.000     C          -0.14655  
         C9        1.0000    0.98827   0.17080   0.98914   Biso      1.000     C          0.080348  
         C10       1.0000    0.52255   0.92130   0.13570   Biso      1.000     C          0.5760460000000001  
         C11       1.0000    0.07825   0.99360   0.38230   Biso      1.000     C          0.079047  
         C12       1.0000    0.03927   0.05570   0.47414   Biso      1.000     C          -0.150256           
         C13       1.0000    0.87801   0.00860   0.53822   Biso      1.000     C          0.029146  
         C14       1.0000    0.75741   0.90030   0.50502   Biso      1.000     C          -0.156316           
         C15       1.0000    0.80636   0.84410   0.41192   Biso      1.000     C          0.096914  
         C16       1.0000    0.82264   0.07600   0.63968   Biso      1.000     C          0.55674   
         C17       1.0000    0.39933   0.59430   0.12626   Biso      1.000     C          0.097856  
         C18       1.0000    0.48001   0.51440   0.04942   Biso      1.000     C          -0.149601           
         C19       1.0000    0.30958   0.51010   0.94976   Biso      1.000     C          0.021703999999999998          
         C20       1.0000    0.06404   0.59110   0.93088   Biso      1.000     C          -0.148956           
         C21       1.0000    0.99913   0.67080   0.01086   Biso      1.000     C          0.077956  
         C22       1.0000    0.38685   0.42130   0.86430   Biso      1.000     C          0.576263  
         C23       1.0000    0.39444   0.34410   0.58808   Biso      1.000     C          0.097099  
         C24       1.0000    0.18296   0.57600   0.36032   Biso      1.000     C          0.5569109999999999  
         Cu1       1.0000    0.05619   0.78433   0.22658   Biso      1.000     Cu          0.793199  
         Cu2       1.0000    0.82961   0.28433   0.77342   Biso      1.000     Cu          0.792972  
         H1        1.0000    0.94310   0.59180   0.86440   Biso      1.000     H          0.133633  
         H2        1.0000    0.84750   0.52660   0.66060   Biso      1.000     H          0.099383  
         H3        1.0000    0.83530   0.72710   0.99620   Biso      1.000     H          0.097175  
         H4        1.0000    0.09880   0.36640   0.45440   Biso      1.000     H          0.13262000000000002           
         H5        1.0000    0.33330   0.27170   0.61040   Biso      1.000     H          0.095413  
         H6        1.0000    0.32270   0.09480   0.80640   Biso      1.000     H          0.10320599999999999           
         H7        1.0000    0.58620   0.96270   0.93560   Biso      1.000     H          0.133999  
         H8        1.0000    0.07870   0.09180   0.13560   Biso      1.000     H          0.131135  
         H9        1.0000    0.62740   0.62930   0.50660   Biso      1.000     H          0.131009  
         H10       1.0000    0.18690   0.02660   0.33940   Biso      1.000     H          0.098071  
         H11       1.0000    0.12080   0.12930   0.49340   Biso      1.000     H          0.131241  
         H12       1.0000    0.64440   0.86640   0.54560   Biso      1.000     H          0.132823  
         H13       1.0000    0.72290   0.77170   0.38960   Biso      1.000     H          0.09452   
         H14       1.0000    0.51630   0.59480   0.19360   Biso      1.000     H          0.102175  
         H15       1.0000    0.65060   0.46270   0.06440   Biso      1.000     H          0.13417   
         H16       1.0000    0.83910   0.22710   0.00380   Biso      1.000     H          0.095407  
         N1        1.0000    0.15829   0.67190   0.10858   Biso      1.000     N          -0.21733200000000003          
         N2        1.0000    0.96790   0.88790   0.35140   Biso      1.000     N          -0.197821           
         N3        1.0000    0.61650   0.38790   0.64860   Biso      1.000     N          -0.198483           
         N4        1.0000    0.04971   0.17190   0.89142   Biso      1.000     N          -0.21834800000000001          
         O1        1.0000    0.64525   0.38220   0.87650   Biso      1.000     O          -0.551279           
         O2        1.0000    0.28557   0.67180   0.33794   Biso      1.000     O          -0.545621           
         O3        1.0000    0.97327   0.53550   0.31014   Biso      1.000     O          -0.559384           
         O4        1.0000    0.76875   0.88220   0.12350   Biso      1.000     O          -0.55377  
         O5        1.0000    0.41212   0.89390   0.20964   Biso      1.000     O          -0.5737359999999999           
         O6        1.0000    0.94763   0.17180   0.66206   Biso      1.000     O          -0.5457420000000001           
         O7        1.0000    0.66313   0.03550   0.68986   Biso      1.000     O          -0.55892  
         O8        1.0000    0.20248   0.39390   0.79036   Biso      1.000     O          -0.576203 