
##########################################################################
#               Crystallographic Information Format file
#               Produced by PyCifRW module
#
#  This is a CIF file.  CIF has been adopted by the International
#  Union of Crystallography as the standard for data archiving and
#  transmission.
#
#  For information on this file format, follow the CIF links at
#  http://www.iucr.org
##########################################################################

data_image0

_cell_length_a                          5.1646
_cell_length_b                          24.466
_cell_length_c                          11.585
_cell_angle_alpha                       90
_cell_angle_beta                        101.559
_cell_angle_gamma                       90
_symmetry_space_group_name_H-M          'P 1'
_symmetry_int_tables_number             1
loop_
  _symmetry_equiv_pos_as_xyz
         'x, y, z' 
loop_
  _atom_site_label
  _atom_site_occupancy
  _atom_site_fract_x
  _atom_site_fract_y
  _atom_site_fract_z
  _atom_site_thermal_displace_type
  _atom_site_B_iso_or_equiv
  _atom_site_type_symbol
  _atom_site_charge
         C1        1.0000    0.04460   0.56266   0.90580   Biso      1.000     C          0.577288  
         C2        1.0000    0.50170   0.75013   0.43700   Biso      1.000     C          -0.15674  
         C3        1.0000    0.40870   0.79555   0.37050   Biso      1.000     C          0.095807  
         C4        1.0000    0.48940   0.68540   0.60610   Biso      1.000     C          0.551175  
         C5        1.0000    0.15260   0.43595   0.09940   Biso      1.000     C          0.100842  
         C6        1.0000    0.03350   0.47303   0.01600   Biso      1.000     C          -0.15206  
         C7        1.0000    0.16900   0.52008   0.99490   Biso      1.000     C          0.020708  
         C8        1.0000    0.41880   0.52705   0.06000   Biso      1.000     C          -0.145787           
         C9        1.0000    0.52510   0.48855   0.14420   Biso      1.000     C          0.081073  
         C10       1.0000    0.60000   0.68844   0.98500   Biso      1.000     C          0.081906  
         C11       1.0000    0.68400   0.73337   0.05550   Biso      1.000     C          -0.149954           
         C12       1.0000    0.88700   0.76496   0.03150   Biso      1.000     C          0.03032   
         C13       1.0000    0.00170   0.74987   0.93700   Biso      1.000     C          -0.156747           
         C14       1.0000    0.90870   0.70445   0.87050   Biso      1.000     C          0.095805  
         C15       1.0000    0.98940   0.81460   0.10610   Biso      1.000     C          0.55116   
         C16       1.0000    0.65260   0.06405   0.59940   Biso      1.000     C          0.100858  
         C17       1.0000    0.53350   0.02697   0.51600   Biso      1.000     C          -0.152049           
         C18       1.0000    0.66900   0.97992   0.49490   Biso      1.000     C          0.020728  
         C19       1.0000    0.52510   0.51145   0.64420   Biso      1.000     C          0.081081  
         C20       1.0000    0.41880   0.47295   0.56000   Biso      1.000     C          -0.145779           
         C21       1.0000    0.16900   0.47992   0.49490   Biso      1.000     C          0.020744  
         C22       1.0000    0.03350   0.52697   0.51600   Biso      1.000     C          -0.152057           
         C23       1.0000    0.15260   0.56405   0.59940   Biso      1.000     C          0.10083   
         C24       1.0000    0.48940   0.31460   0.10610   Biso      1.000     C          0.551159  
         C25       1.0000    0.38700   0.73504   0.53150   Biso      1.000     C          0.030322  
         C26       1.0000    0.40870   0.20445   0.87050   Biso      1.000     C          0.095803  
         C27       1.0000    0.38700   0.26496   0.03150   Biso      1.000     C          0.030332  
         C28       1.0000    0.18400   0.23337   0.05550   Biso      1.000     C          -0.149944           
         C29       1.0000    0.10000   0.18844   0.98500   Biso      1.000     C          0.081884  
         C30       1.0000    0.54460   0.93734   0.40580   Biso      1.000     C          0.577269  
         C31       1.0000    0.02510   0.01145   0.64420   Biso      1.000     C          0.081082  
         C32       1.0000    0.91880   0.97295   0.56000   Biso      1.000     C          -0.145766           
         C33       1.0000    0.50170   0.24987   0.93700   Biso      1.000     C          -0.156735           
         C34       1.0000    0.18400   0.76663   0.55550   Biso      1.000     C          -0.149948           
         C35       1.0000    0.04460   0.43734   0.40580   Biso      1.000     C          0.577253  
         C36       1.0000    0.65260   0.93595   0.09940   Biso      1.000     C          0.100833  
         C37       1.0000    0.60000   0.31156   0.48500   Biso      1.000     C          0.081885  
         C38       1.0000    0.68400   0.26663   0.55550   Biso      1.000     C          -0.14996  
         C39       1.0000    0.88700   0.23504   0.53150   Biso      1.000     C          0.03031   
         C40       1.0000    0.00170   0.25013   0.43700   Biso      1.000     C          -0.156751           
         C41       1.0000    0.90870   0.29555   0.37050   Biso      1.000     C          0.095799  
         C42       1.0000    0.98940   0.18540   0.60610   Biso      1.000     C          0.551166  
         C43       1.0000    0.10000   0.81156   0.48500   Biso      1.000     C          0.081894  
         C44       1.0000    0.53350   0.97303   0.01600   Biso      1.000     C          -0.152051           
         C45       1.0000    0.66900   0.02008   0.99490   Biso      1.000     C          0.020729  
         C46       1.0000    0.91880   0.02705   0.06000   Biso      1.000     C          -0.145771           
         C47       1.0000    0.54460   0.06266   0.90580   Biso      1.000     C          0.577264  
         C48       1.0000    0.02510   0.98855   0.14420   Biso      1.000     C          0.081077  
         Cu1       1.0000    0.55799   0.38657   0.28326   Biso      1.000     Cu          0.795221  
         Cu2       1.0000    0.05799   0.88657   0.28326   Biso      1.000     Cu          0.795227  
         Cu3       1.0000    0.05799   0.11343   0.78326   Biso      1.000     Cu          0.795278  
         Cu4       1.0000    0.55799   0.61343   0.78326   Biso      1.000     Cu          0.795255  
         H1        1.0000    0.19600   0.99430   0.18880   Biso      1.000     H          0.090768  
         H2        1.0000    0.36130   0.03340   0.47330   Biso      1.000     H          0.129267  
         H3        1.0000    0.98580   0.30520   0.30640   Biso      1.000     H          0.102506  
         H4        1.0000    0.01830   0.94210   0.54760   Biso      1.000     H          0.12881   
         H5        1.0000    0.14160   0.22950   0.41860   Biso      1.000     H          0.130436  
         H6        1.0000    0.51830   0.55790   0.04760   Biso      1.000     H          0.128797  
         H7        1.0000    0.64160   0.72950   0.41860   Biso      1.000     H          0.130455  
         H8        1.0000    0.95910   0.16750   0.00140   Biso      1.000     H          0.092091  
         H9        1.0000    0.60320   0.25790   0.61890   Biso      1.000     H          0.137115  
         H10       1.0000    0.10320   0.24210   0.11890   Biso      1.000     H          0.137121  
         H11       1.0000    0.10320   0.75790   0.61890   Biso      1.000     H          0.137119  
         H12       1.0000    0.45910   0.33250   0.50140   Biso      1.000     H          0.092085  
         H13       1.0000    0.64160   0.27050   0.91860   Biso      1.000     H          0.130458  
         H14       1.0000    0.48580   0.19480   0.80640   Biso      1.000     H          0.102508  
         H15       1.0000    0.05980   0.59600   0.61090   Biso      1.000     H          0.105693  
         H16       1.0000    0.86130   0.53340   0.47330   Biso      1.000     H          0.129264  
         H17       1.0000    0.51830   0.44210   0.54760   Biso      1.000     H          0.128815  
         H18       1.0000    0.48580   0.80520   0.30640   Biso      1.000     H          0.102514  
         H19       1.0000    0.55980   0.09600   0.61090   Biso      1.000     H          0.105706  
         H20       1.0000    0.19600   0.00570   0.68880   Biso      1.000     H          0.090782  
         H21       1.0000    0.55980   0.90400   0.11090   Biso      1.000     H          0.105691  
         H22       1.0000    0.69600   0.49430   0.18880   Biso      1.000     H          0.090767  
         H23       1.0000    0.69600   0.50570   0.68880   Biso      1.000     H          0.090773  
         H24       1.0000    0.86130   0.46660   0.97330   Biso      1.000     H          0.129251  
         H25       1.0000    0.45910   0.66750   0.00140   Biso      1.000     H          0.092099  
         H26       1.0000    0.60320   0.74210   0.11890   Biso      1.000     H          0.137119  
         H27       1.0000    0.01830   0.05790   0.04760   Biso      1.000     H          0.128813  
         H28       1.0000    0.36130   0.96660   0.97330   Biso      1.000     H          0.129262  
         H29       1.0000    0.98580   0.69480   0.80640   Biso      1.000     H          0.102512  
         H30       1.0000    0.14160   0.77050   0.91860   Biso      1.000     H          0.130439  
         H31       1.0000    0.05980   0.40400   0.11090   Biso      1.000     H          0.105702  
         H32       1.0000    0.95910   0.83250   0.50140   Biso      1.000     H          0.092098  
         N1        1.0000    0.39350   0.44341   0.16460   Biso      1.000     N          -0.209337           
         N2        1.0000    0.20920   0.17358   0.89530   Biso      1.000     N          -0.205245           
         N3        1.0000    0.39350   0.55659   0.66460   Biso      1.000     N          -0.209351           
         N4        1.0000    0.20920   0.82642   0.39530   Biso      1.000     N          -0.205224           
         N5        1.0000    0.89350   0.05659   0.66460   Biso      1.000     N          -0.209345           
         N6        1.0000    0.70920   0.67358   0.89530   Biso      1.000     N          -0.205225           
         N7        1.0000    0.89350   0.94341   0.16460   Biso      1.000     N          -0.209342           
         N8        1.0000    0.70920   0.32642   0.39530   Biso      1.000     N          -0.205231           
         O1        1.0000    0.86650   0.17304   0.68610   Biso      1.000     O          -0.526592           
         O2        1.0000    0.79410   0.55855   0.87150   Biso      1.000     O          -0.56037  
         O3        1.0000    0.18920   0.16186   0.58710   Biso      1.000     O          -0.569242           
         O4        1.0000    0.29410   0.05855   0.87150   Biso      1.000     O          -0.560398           
         O5        1.0000    0.36650   0.67304   0.68610   Biso      1.000     O          -0.52659  
         O6        1.0000    0.68830   0.09770   0.87390   Biso      1.000     O          -0.575733           
         O7        1.0000    0.18830   0.59770   0.87390   Biso      1.000     O          -0.575756           
         O8        1.0000    0.79410   0.44145   0.37150   Biso      1.000     O          -0.560401           
         O9        1.0000    0.68920   0.33814   0.08710   Biso      1.000     O          -0.569241           
         O10       1.0000    0.18920   0.83814   0.08710   Biso      1.000     O          -0.569216           
         O11       1.0000    0.36650   0.32696   0.18610   Biso      1.000     O          -0.526602           
         O12       1.0000    0.68830   0.90230   0.37390   Biso      1.000     O          -0.575744           
         O13       1.0000    0.68920   0.66186   0.58710   Biso      1.000     O          -0.569218           
         O14       1.0000    0.18830   0.40230   0.37390   Biso      1.000     O          -0.575731           
         O15       1.0000    0.86650   0.82696   0.18610   Biso      1.000     O          -0.526589           
         O16       1.0000    0.29410   0.94145   0.37150   Biso      1.000     O          -0.560379 