
##########################################################################
#               Crystallographic Information Format file
#               Produced by PyCifRW module
#
#  This is a CIF file.  CIF has been adopted by the International
#  Union of Crystallography as the standard for data archiving and
#  transmission.
#
#  For information on this file format, follow the CIF links at
#  http://www.iucr.org
##########################################################################

data_image0

_cell_length_a                          3.534
_cell_length_b                          13.0052
_cell_length_c                          15.768
_cell_angle_alpha                       90
_cell_angle_beta                        90
_cell_angle_gamma                       96.885
_symmetry_space_group_name_H-M          'P 1'
_symmetry_int_tables_number             1
loop_
  _symmetry_equiv_pos_as_xyz
         'x, y, z' 
loop_
  _atom_site_label
  _atom_site_occupancy
  _atom_site_fract_x
  _atom_site_fract_y
  _atom_site_fract_z
  _atom_site_thermal_displace_type
  _atom_site_B_iso_or_equiv
  _atom_site_type_symbol
  _atom_site_charge
         C1        1.0000    0.84140   0.73320   0.27190   Biso      1.000     C          -0.137559           
         C2        1.0000    0.56500   0.72880   0.69140   Biso      1.000     C          0.042334  
         C3        1.0000    0.57400   0.62370   0.67620   Biso      1.000     C          -0.126478           
         C4        1.0000    0.66450   0.56030   0.74200   Biso      1.000     C          0.09210499999999999           
         C5        1.0000    0.43980   0.79900   0.62260   Biso      1.000     C          0.5969939999999999  
         C6        1.0000    0.75480   0.80110   0.33460   Biso      1.000     C          0.088505  
         C7        1.0000    0.93500   0.77120   0.19140   Biso      1.000     C          0.042332999999999996          
         C8        1.0000    0.92600   0.87630   0.17620   Biso      1.000     C          -0.126477           
         C9        1.0000    0.83550   0.93970   0.24200   Biso      1.000     C          0.09210299999999999           
         C10       1.0000    0.06020   0.70100   0.12260   Biso      1.000     C          0.5969939999999999  
         C11       1.0000    0.25480   0.30110   0.16540   Biso      1.000     C          0.088506  
         C12       1.0000    0.34140   0.23320   0.22810   Biso      1.000     C          -0.13755799999999999          
         C13       1.0000    0.43500   0.27120   0.30860   Biso      1.000     C          0.042334  
         C14       1.0000    0.42600   0.37630   0.32380   Biso      1.000     C          -0.126478           
         C15       1.0000    0.33550   0.43970   0.25800   Biso      1.000     C          0.09210399999999999           
         C16       1.0000    0.56020   0.20100   0.37740   Biso      1.000     C          0.596993  
         C17       1.0000    0.24520   0.19890   0.66540   Biso      1.000     C          0.088508  
         C18       1.0000    0.15860   0.26680   0.72810   Biso      1.000     C          -0.13755699999999998          
         C19       1.0000    0.06500   0.22880   0.80860   Biso      1.000     C          0.042335000000000005          
         C20       1.0000    0.07400   0.12370   0.82380   Biso      1.000     C          -0.126478           
         C21       1.0000    0.16450   0.06030   0.75800   Biso      1.000     C          0.09210499999999999           
         C22       1.0000    0.93980   0.29900   0.87740   Biso      1.000     C          0.5969939999999999  
         C23       1.0000    0.65860   0.76680   0.77190   Biso      1.000     C          -0.137559           
         C24       1.0000    0.74520   0.69890   0.83460   Biso      1.000     C          0.088508  
         Cu1       1.0000    0.73758   0.50508   0.92198   Biso      1.000     Cu          0.968625  
         Cu2       1.0000    0.76242   0.99492   0.42198   Biso      1.000     Cu          0.968625  
         Cu3       1.0000    0.26242   0.49492   0.07802   Biso      1.000     Cu          0.9686299999999999  
         Cu4       1.0000    0.23758   0.00508   0.57802   Biso      1.000     Cu          0.968623  
         H1        1.0000    0.02000   0.09630   0.87760   Biso      1.000     H          0.125169  
         H2        1.0000    0.17100   0.99020   0.76860   Biso      1.000     H          0.08930700000000001           
         H3        1.0000    0.80720   0.72470   0.88850   Biso      1.000     H          0.101475  
         H4        1.0000    0.66300   0.83700   0.78360   Biso      1.000     H          0.12171300000000002           
         H5        1.0000    0.52000   0.59630   0.62240   Biso      1.000     H          0.125166  
         H6        1.0000    0.67100   0.49020   0.73140   Biso      1.000     H          0.089305  
         H7        1.0000    0.85020   0.13608   0.52395   Biso      1.000     H          0.40416199999999997           
         H8        1.0000    0.69280   0.77530   0.38850   Biso      1.000     H          0.10147300000000001           
         H9        1.0000    0.83700   0.66300   0.28360   Biso      1.000     H          0.12171099999999999           
         H10       1.0000    0.64980   0.36392   0.02395   Biso      1.000     H          0.404161  
         H11       1.0000    0.82900   0.00980   0.23140   Biso      1.000     H          0.089303  
         H12       1.0000    0.35020   0.63608   0.97605   Biso      1.000     H          0.404161  
         H13       1.0000    0.19280   0.27530   0.11150   Biso      1.000     H          0.101476  
         H14       1.0000    0.33700   0.16300   0.21640   Biso      1.000     H          0.12171300000000002           
         H15       1.0000    0.48000   0.40370   0.37760   Biso      1.000     H          0.125165  
         H16       1.0000    0.32900   0.50980   0.26860   Biso      1.000     H          0.089306  
         H17       1.0000    0.14980   0.86392   0.47605   Biso      1.000     H          0.40416199999999997           
         H18       1.0000    0.30720   0.22470   0.61150   Biso      1.000     H          0.101475  
         H19       1.0000    0.16300   0.33700   0.71640   Biso      1.000     H          0.12171300000000002           
         H20       1.0000    0.98000   0.90370   0.12240   Biso      1.000     H          0.125162  
         N1        1.0000    0.24290   0.09650   0.67961   Biso      1.000     N          -0.224316           
         N2        1.0000    0.25710   0.40350   0.17961   Biso      1.000     N          -0.22431399999999999          
         N3        1.0000    0.74290   0.59650   0.82039   Biso      1.000     N          -0.22431500000000001          
         N4        1.0000    0.75710   0.90350   0.32039   Biso      1.000     N          -0.224316           
         O1        1.0000    0.96300   0.39405   0.85786   Biso      1.000     O          -0.6251369999999999           
         O2        1.0000    0.68690   0.42949   0.02838   Biso      1.000     O          -0.953491           
         O3        1.0000    0.46300   0.89405   0.64214   Biso      1.000     O          -0.6251359999999999           
         O4        1.0000    0.31890   0.75840   0.55496   Biso      1.000     O          -0.5634060000000001           
         O5        1.0000    0.81310   0.07051   0.52838   Biso      1.000     O          -0.9534879999999999           
         O6        1.0000    0.03700   0.60595   0.14214   Biso      1.000     O          -0.625138           
         O7        1.0000    0.18110   0.74160   0.05496   Biso      1.000     O          -0.563411           
         O8        1.0000    0.31310   0.57051   0.97162   Biso      1.000     O          -0.95349  
         O9        1.0000    0.53700   0.10595   0.35786   Biso      1.000     O          -0.625134           
         O10       1.0000    0.68110   0.24160   0.44504   Biso      1.000     O          -0.5634100000000001           
         O11       1.0000    0.18690   0.92949   0.47162   Biso      1.000     O          -0.953485           
         O12       1.0000    0.81890   0.25840   0.94504   Biso      1.000     O          -0.563408 