
##########################################################################
#               Crystallographic Information Format file
#               Produced by PyCifRW module
#
#  This is a CIF file.  CIF has been adopted by the International
#  Union of Crystallography as the standard for data archiving and
#  transmission.
#
#  For information on this file format, follow the CIF links at
#  http://www.iucr.org
##########################################################################

data_image0

_cell_length_a                          8.954
_cell_length_b                          13.64
_cell_length_c                          22.026
_cell_angle_alpha                       90
_cell_angle_beta                        90
_cell_angle_gamma                       95.57
_symmetry_space_group_name_H-M          'P 1'
_symmetry_int_tables_number             1
loop_
  _symmetry_equiv_pos_as_xyz
         'x, y, z' 
loop_
  _atom_site_label
  _atom_site_occupancy
  _atom_site_fract_x
  _atom_site_fract_y
  _atom_site_fract_z
  _atom_site_thermal_displace_type
  _atom_site_B_iso_or_equiv
  _atom_site_type_symbol
  _atom_site_charge
         C1        1.0000    0.19250   0.89720   0.57770   Biso      1.000     C          0.610926  
         C2        1.0000    0.19250   0.39720   0.92230   Biso      1.000     C          0.610927  
         C3        1.0000    0.08150   0.21170   0.29270   Biso      1.000     C          0.077861  
         C4        1.0000    0.06570   0.30660   0.27170   Biso      1.000     C          0.08622   
         C5        1.0000    0.88010   0.24060   0.20450   Biso      1.000     C          0.078902  
         C6        1.0000    0.89350   0.14540   0.22690   Biso      1.000     C          0.08703   
         C7        1.0000    0.19830   0.18240   0.33740   Biso      1.000     C          0.622835  
         C8        1.0000    0.14020   0.40460   0.29350   Biso      1.000     C          0.542552  
         C9        1.0000    0.76350   0.27250   0.15880   Biso      1.000     C          0.527574  
         C10       1.0000    0.81760   0.04730   0.20550   Biso      1.000     C          0.547206  
         C11       1.0000    0.07170   0.92910   0.46980   Biso      1.000     C          0.08299   
         C12       1.0000    0.08870   0.94640   0.53320   Biso      1.000     C          0.077353  
         C13       1.0000    0.13620   0.35270   0.07090   Biso      1.000     C          0.533454  
         C14       1.0000    0.13620   0.85270   0.42910   Biso      1.000     C          0.533454  
         C15       1.0000    0.93430   0.19340   0.77170   Biso      1.000     C          0.086217  
         C16       1.0000    0.11990   0.25940   0.70450   Biso      1.000     C          0.078899  
         C17       1.0000    0.10650   0.35460   0.72690   Biso      1.000     C          0.08703   
         C18       1.0000    0.80170   0.31760   0.83740   Biso      1.000     C          0.622833  
         C19       1.0000    0.85980   0.09540   0.79350   Biso      1.000     C          0.542547  
         C20       1.0000    0.23650   0.22750   0.65880   Biso      1.000     C          0.527568  
         C21       1.0000    0.18240   0.45270   0.70550   Biso      1.000     C          0.547207  
         C22       1.0000    0.92830   0.57090   0.96980   Biso      1.000     C          0.082989  
         C23       1.0000    0.91130   0.55360   0.03320   Biso      1.000     C          0.077352  
         C24       1.0000    0.86380   0.64730   0.92910   Biso      1.000     C          0.53345   
         C25       1.0000    0.80750   0.60280   0.07770   Biso      1.000     C          0.610926  
         C26       1.0000    0.91850   0.28830   0.79270   Biso      1.000     C          0.077859  
         C27       1.0000    0.08870   0.44640   0.96680   Biso      1.000     C          0.077352  
         C28       1.0000    0.07170   0.42910   0.03020   Biso      1.000     C          0.08299   
         C29       1.0000    0.85980   0.59540   0.70650   Biso      1.000     C          0.542545  
         C30       1.0000    0.91850   0.78830   0.70730   Biso      1.000     C          0.077858  
         C31       1.0000    0.93430   0.69340   0.72830   Biso      1.000     C          0.086218  
         C32       1.0000    0.11990   0.75940   0.79550   Biso      1.000     C          0.0789    
         C33       1.0000    0.10650   0.85460   0.77310   Biso      1.000     C          0.08703   
         C34       1.0000    0.80170   0.81760   0.66260   Biso      1.000     C          0.622832  
         C35       1.0000    0.81760   0.54730   0.29450   Biso      1.000     C          0.547206  
         C36       1.0000    0.23650   0.72750   0.84120   Biso      1.000     C          0.527571  
         C37       1.0000    0.18240   0.95270   0.79450   Biso      1.000     C          0.547202  
         C38       1.0000    0.91130   0.05360   0.46680   Biso      1.000     C          0.077353  
         C39       1.0000    0.92830   0.07090   0.53020   Biso      1.000     C          0.08299   
         C40       1.0000    0.80750   0.10280   0.42230   Biso      1.000     C          0.610927  
         C41       1.0000    0.08150   0.71170   0.20730   Biso      1.000     C          0.077861  
         C42       1.0000    0.06570   0.80660   0.22830   Biso      1.000     C          0.086218  
         C43       1.0000    0.88010   0.74060   0.29550   Biso      1.000     C          0.078901  
         C44       1.0000    0.89350   0.64540   0.27310   Biso      1.000     C          0.08703   
         C45       1.0000    0.19830   0.68240   0.16260   Biso      1.000     C          0.622832  
         C46       1.0000    0.14020   0.90460   0.20650   Biso      1.000     C          0.542548  
         C47       1.0000    0.76350   0.77250   0.34120   Biso      1.000     C          0.527573  
         C48       1.0000    0.86380   0.14730   0.57090   Biso      1.000     C          0.533456  
         N1        1.0000    0.00580   0.36450   0.77080   Biso      1.000     N          -0.187621           
         N2        1.0000    0.01770   0.51500   0.93970   Biso      1.000     N          -0.191094           
         N3        1.0000    0.03390   0.18340   0.72660   Biso      1.000     N          -0.207814           
         N4        1.0000    0.98230   0.98500   0.43970   Biso      1.000     N          -0.191094           
         N5        1.0000    0.99420   0.63550   0.22920   Biso      1.000     N          -0.187621           
         N6        1.0000    0.99420   0.13550   0.27080   Biso      1.000     N          -0.18762  
         N7        1.0000    0.98230   0.48500   0.06030   Biso      1.000     N          -0.191093           
         N8        1.0000    0.96610   0.81660   0.27340   Biso      1.000     N          -0.207813           
         N9        1.0000    0.96610   0.31660   0.22660   Biso      1.000     N          -0.207813           
         N10       1.0000    0.01770   0.01500   0.56030   Biso      1.000     N          -0.191095           
         N11       1.0000    0.03390   0.68340   0.77340   Biso      1.000     N          -0.207813           
         N12       1.0000    0.00580   0.86450   0.72920   Biso      1.000     N          -0.187621           
         O1        1.0000    0.16180   0.27200   0.05010   Biso      1.000     O          -0.360525           
         O2        1.0000    0.28290   0.34130   0.94100   Biso      1.000     O          -0.685506           
         O3        1.0000    0.17600   0.42210   0.86750   Biso      1.000     O          -0.568576           
         O4        1.0000    0.16870   0.09660   0.36090   Biso      1.000     O          -0.55425  
         O5        1.0000    0.31180   0.23940   0.34580   Biso      1.000     O          -0.701766           
         O6        1.0000    0.17420   0.41720   0.34730   Biso      1.000     O          -0.408795           
         O7        1.0000    0.15230   0.46990   0.25180   Biso      1.000     O          -0.484615           
         O8        1.0000    0.79780   0.36000   0.13800   Biso      1.000     O          -0.499256           
         O9        1.0000    0.64670   0.21980   0.15000   Biso      1.000     O          -0.366642           
         O10       1.0000    0.78620   0.03510   0.15180   Biso      1.000     O          -0.443718           
         O11       1.0000    0.80390   0.98240   0.24760   Biso      1.000     O          -0.516859           
         O12       1.0000    0.14850   0.88040   0.37380   Biso      1.000     O          -0.484195           
         O13       1.0000    0.16180   0.77200   0.44990   Biso      1.000     O          -0.360522           
         O14       1.0000    0.28290   0.84130   0.55900   Biso      1.000     O          -0.685505           
         O15       1.0000    0.17600   0.92210   0.63250   Biso      1.000     O          -0.568576           
         O16       1.0000    0.83130   0.40340   0.86090   Biso      1.000     O          -0.554249           
         O17       1.0000    0.68820   0.26060   0.84580   Biso      1.000     O          -0.701764           
         O18       1.0000    0.83820   0.72800   0.94990   Biso      1.000     O          -0.360522           
         O19       1.0000    0.85150   0.61960   0.87380   Biso      1.000     O          -0.484195           
         O20       1.0000    0.19610   0.51760   0.74760   Biso      1.000     O          -0.516865           
         O21       1.0000    0.21380   0.46490   0.65180   Biso      1.000     O          -0.443715           
         O22       1.0000    0.35330   0.28020   0.65000   Biso      1.000     O          -0.36664  
         O23       1.0000    0.20220   0.14000   0.63800   Biso      1.000     O          -0.499254           
         O24       1.0000    0.84770   0.03010   0.75180   Biso      1.000     O          -0.484612           
         O25       1.0000    0.14850   0.38040   0.12620   Biso      1.000     O          -0.484199           
         O26       1.0000    0.82580   0.08280   0.84730   Biso      1.000     O          -0.40879  
         O27       1.0000    0.80390   0.48240   0.25240   Biso      1.000     O          -0.516864           
         O28       1.0000    0.82400   0.57790   0.13250   Biso      1.000     O          -0.568576           
         O29       1.0000    0.64670   0.71980   0.35000   Biso      1.000     O          -0.366644           
         O30       1.0000    0.71710   0.65870   0.05900   Biso      1.000     O          -0.685505           
         O31       1.0000    0.83130   0.90340   0.63910   Biso      1.000     O          -0.554247           
         O32       1.0000    0.68820   0.76060   0.65420   Biso      1.000     O          -0.701764           
         O33       1.0000    0.82580   0.58280   0.65270   Biso      1.000     O          -0.408789           
         O34       1.0000    0.84770   0.53010   0.74820   Biso      1.000     O          -0.484608           
         O35       1.0000    0.78620   0.53510   0.34820   Biso      1.000     O          -0.443716           
         O36       1.0000    0.35330   0.78020   0.85000   Biso      1.000     O          -0.366642           
         O37       1.0000    0.21380   0.96490   0.84820   Biso      1.000     O          -0.443713           
         O38       1.0000    0.19610   0.01760   0.75240   Biso      1.000     O          -0.516858           
         O39       1.0000    0.20220   0.64000   0.86200   Biso      1.000     O          -0.499257           
         O40       1.0000    0.83820   0.22800   0.55010   Biso      1.000     O          -0.360527           
         O41       1.0000    0.71710   0.15870   0.44100   Biso      1.000     O          -0.685507           
         O42       1.0000    0.82400   0.07790   0.36750   Biso      1.000     O          -0.568575           
         O43       1.0000    0.16870   0.59660   0.13910   Biso      1.000     O          -0.554245           
         O44       1.0000    0.31180   0.73940   0.15420   Biso      1.000     O          -0.701764           
         O45       1.0000    0.17420   0.91720   0.15270   Biso      1.000     O          -0.408792           
         O46       1.0000    0.15230   0.96990   0.24820   Biso      1.000     O          -0.484614           
         O47       1.0000    0.79780   0.86000   0.36200   Biso      1.000     O          -0.49926  
         O48       1.0000    0.85150   0.11960   0.62620   Biso      1.000     O          -0.484197           
         Yb1       1.0000    0.45487   0.74594   0.60899   Biso      1.000     Yb          1.658068  
         Yb2       1.0000    0.98230   0.47614   0.17378   Biso      1.000     Yb          1.128258  
         Yb3       1.0000    0.54513   0.75406   0.10899   Biso      1.000     Yb          1.658069  
         Yb4       1.0000    0.45487   0.24594   0.89101   Biso      1.000     Yb          1.658071  
         Yb5       1.0000    0.54513   0.25406   0.39101   Biso      1.000     Yb          1.658076  
         Yb6       1.0000    0.01770   0.52386   0.82622   Biso      1.000     Yb          1.128267  
         Yb7       1.0000    0.98230   0.97614   0.32622   Biso      1.000     Yb          1.128261  
         Yb8       1.0000    0.01770   0.02386   0.67378   Biso      1.000     Yb          1.128265 