
##########################################################################
#               Crystallographic Information Format file
#               Produced by PyCifRW module
#
#  This is a CIF file.  CIF has been adopted by the International
#  Union of Crystallography as the standard for data archiving and
#  transmission.
#
#  For information on this file format, follow the CIF links at
#  http://www.iucr.org
##########################################################################

data_image0

_cell_length_a                          9.1432
_cell_length_b                          13.692
_cell_length_c                          22.304
_cell_angle_alpha                       90
_cell_angle_beta                        90
_cell_angle_gamma                       90.43
_symmetry_space_group_name_H-M          'P 1'
_symmetry_int_tables_number             1
loop_
  _symmetry_equiv_pos_as_xyz
         'x, y, z' 
loop_
  _atom_site_label
  _atom_site_occupancy
  _atom_site_fract_x
  _atom_site_fract_y
  _atom_site_fract_z
  _atom_site_thermal_displace_type
  _atom_site_B_iso_or_equiv
  _atom_site_type_symbol
  _atom_site_charge
         C1        1.0000    0.89480   0.55360   0.03110   Biso      1.000     C          0.067246  
         C2        1.0000    0.94720   0.28440   0.79860   Biso      1.000     C          0.050045  
         C3        1.0000    0.83410   0.32250   0.84390   Biso      1.000     C          0.631836  
         C4        1.0000    0.86310   0.65110   0.92670   Biso      1.000     C          0.554366  
         C5        1.0000    0.92460   0.57030   0.96740   Biso      1.000     C          0.084975  
         C6        1.0000    0.10160   0.90650   0.20480   Biso      1.000     C          0.5556479999999999  
         C7        1.0000    0.77740   0.59450   0.06950   Biso      1.000     C          0.613221  
         C8        1.0000    0.24190   0.92580   0.77540   Biso      1.000     C          0.547676  
         C9        1.0000    0.12860   0.84370   0.76680   Biso      1.000     C          0.090948  
         C10       1.0000    0.12370   0.75220   0.79720   Biso      1.000     C          0.110133  
         C11       1.0000    0.95540   0.19120   0.77450   Biso      1.000     C          0.095247  
         C12       1.0000    0.19330   0.72460   0.85840   Biso      1.000     C          0.553539  
         C13       1.0000    0.95540   0.69120   0.72550   Biso      1.000     C          0.095242  
         C14       1.0000    0.94720   0.78440   0.70140   Biso      1.000     C          0.050045  
         C15       1.0000    0.83410   0.82250   0.65610   Biso      1.000     C          0.631839  
         C16       1.0000    0.86310   0.15110   0.57330   Biso      1.000     C          0.5543640000000001  
         C17       1.0000    0.92460   0.07030   0.53260   Biso      1.000     C          0.084975  
         C18       1.0000    0.89480   0.05360   0.46890   Biso      1.000     C          0.067247  
         C19       1.0000    0.77740   0.09450   0.43050   Biso      1.000     C          0.613223  
         C20       1.0000    0.75810   0.57420   0.27540   Biso      1.000     C          0.5476810000000001  
         C21       1.0000    0.87140   0.65630   0.26680   Biso      1.000     C          0.090945  
         C22       1.0000    0.89840   0.59350   0.70480   Biso      1.000     C          0.555643  
         C23       1.0000    0.89840   0.09350   0.79520   Biso      1.000     C          0.5556439999999999  
         C24       1.0000    0.19330   0.22460   0.64160   Biso      1.000     C          0.5535359999999999  
         C25       1.0000    0.12370   0.25220   0.70280   Biso      1.000     C          0.11012999999999999           
         C26       1.0000    0.22260   0.40550   0.93050   Biso      1.000     C          0.613216  
         C27       1.0000    0.10520   0.44640   0.96890   Biso      1.000     C          0.06725   
         C28       1.0000    0.07540   0.42970   0.03260   Biso      1.000     C          0.084973  
         C29       1.0000    0.13690   0.34890   0.07330   Biso      1.000     C          0.554367  
         C30       1.0000    0.16590   0.67750   0.15610   Biso      1.000     C          0.63184   
         C31       1.0000    0.05280   0.71560   0.20140   Biso      1.000     C          0.050044  
         C32       1.0000    0.04460   0.80880   0.22550   Biso      1.000     C          0.095246  
         C33       1.0000    0.75810   0.07420   0.22460   Biso      1.000     C          0.547675  
         C34       1.0000    0.87140   0.15630   0.23320   Biso      1.000     C          0.090949  
         C35       1.0000    0.87630   0.24780   0.20280   Biso      1.000     C          0.110132  
         C36       1.0000    0.80670   0.27540   0.14160   Biso      1.000     C          0.553538  
         C37       1.0000    0.10160   0.40650   0.29520   Biso      1.000     C          0.555647  
         C38       1.0000    0.04460   0.30880   0.27450   Biso      1.000     C          0.095247  
         C39       1.0000    0.05280   0.21560   0.29860   Biso      1.000     C          0.050048  
         C40       1.0000    0.16590   0.17750   0.34390   Biso      1.000     C          0.631838  
         C41       1.0000    0.13690   0.84890   0.42670   Biso      1.000     C          0.5543640000000001  
         C42       1.0000    0.07540   0.92970   0.46740   Biso      1.000     C          0.084976  
         C43       1.0000    0.10520   0.94640   0.53110   Biso      1.000     C          0.06725199999999999           
         C44       1.0000    0.22260   0.90550   0.56950   Biso      1.000     C          0.613214  
         C45       1.0000    0.24190   0.42580   0.72460   Biso      1.000     C          0.547672  
         C46       1.0000    0.12860   0.34370   0.73320   Biso      1.000     C          0.090945  
         C47       1.0000    0.87630   0.74780   0.29720   Biso      1.000     C          0.110132  
         C48       1.0000    0.80670   0.77540   0.35840   Biso      1.000     C          0.5535399999999999  
         Lu1       1.0000    0.96318   0.97952   0.32900   Biso      1.000     Lu          1.4360389999999998  
         Lu2       1.0000    0.46736   0.72923   0.07534   Biso      1.000     Lu          1.480189  
         Lu3       1.0000    0.96318   0.47952   0.17100   Biso      1.000     Lu          1.43604   
         Lu4       1.0000    0.53264   0.77077   0.57534   Biso      1.000     Lu          1.480193  
         Lu5       1.0000    0.03682   0.02048   0.67100   Biso      1.000     Lu          1.436029  
         Lu6       1.0000    0.53264   0.27077   0.92466   Biso      1.000     Lu          1.480185  
         Lu7       1.0000    0.03682   0.52048   0.82900   Biso      1.000     Lu          1.436034  
         Lu8       1.0000    0.46736   0.22923   0.42466   Biso      1.000     Lu          1.480193  
         N1        1.0000    0.97180   0.48520   0.05890   Biso      1.000     N          -0.232719           
         N2        1.0000    0.95520   0.82080   0.27560   Biso      1.000     N          -0.22186  
         N3        1.0000    0.96520   0.64290   0.22170   Biso      1.000     N          -0.215689           
         N4        1.0000    0.02820   0.01480   0.55890   Biso      1.000     N          -0.232717           
         N5        1.0000    0.04480   0.67920   0.77560   Biso      1.000     N          -0.22186399999999998          
         N6        1.0000    0.03480   0.85710   0.72170   Biso      1.000     N          -0.21569000000000002          
         N7        1.0000    0.95520   0.32080   0.22440   Biso      1.000     N          -0.221863           
         N8        1.0000    0.04480   0.17920   0.72440   Biso      1.000     N          -0.22186599999999998          
         N9        1.0000    0.03480   0.35710   0.77830   Biso      1.000     N          -0.215691           
         N10       1.0000    0.97180   0.98520   0.44110   Biso      1.000     N          -0.23271399999999998          
         N11       1.0000    0.96520   0.14290   0.27830   Biso      1.000     N          -0.215691           
         N12       1.0000    0.02820   0.51480   0.94110   Biso      1.000     N          -0.232719           
         O1        1.0000    0.20840   0.00340   0.74480   Biso      1.000     O          -0.5700109999999999           
         O2        1.0000    0.35100   0.91320   0.80570   Biso      1.000     O          -0.391223           
         O3        1.0000    0.22300   0.79150   0.89450   Biso      1.000     O          -0.431446           
         O4        1.0000    0.20450   0.63260   0.86580   Biso      1.000     O          -0.5586949999999999           
         O5        1.0000    0.87760   0.53180   0.74650   Biso      1.000     O          -0.537755           
         O6        1.0000    0.87100   0.58280   0.65040   Biso      1.000     O          -0.444216           
         O7        1.0000    0.73600   0.76800   0.63930   Biso      1.000     O          -0.5751609999999999           
         O8        1.0000    0.85410   0.90950   0.63770   Biso      1.000     O          -0.555222           
         O9        1.0000    0.86300   0.12580   0.62770   Biso      1.000     O          -0.547575           
         O10       1.0000    0.83030   0.23030   0.55130   Biso      1.000     O          -0.470308           
         O11       1.0000    0.79160   0.49660   0.24480   Biso      1.000     O          -0.5700069999999999           
         O12       1.0000    0.79290   0.08090   0.37430   Biso      1.000     O          -0.520586           
         O13       1.0000    0.64900   0.58680   0.30570   Biso      1.000     O          -0.391221           
         O14       1.0000    0.77700   0.70850   0.39450   Biso      1.000     O          -0.43144099999999996          
         O15       1.0000    0.79550   0.86740   0.36580   Biso      1.000     O          -0.5586909999999999           
         O16       1.0000    0.12240   0.96820   0.24650   Biso      1.000     O          -0.537754           
         O17       1.0000    0.12900   0.91720   0.15040   Biso      1.000     O          -0.44422  
         O18       1.0000    0.26400   0.73200   0.13930   Biso      1.000     O          -0.575158           
         O19       1.0000    0.14590   0.59050   0.13770   Biso      1.000     O          -0.555222           
         O20       1.0000    0.13700   0.37420   0.12770   Biso      1.000     O          -0.5475810000000001           
         O21       1.0000    0.16970   0.26970   0.05130   Biso      1.000     O          -0.47033800000000003          
         O22       1.0000    0.67230   0.13990   0.45540   Biso      1.000     O          -0.598601           
         O23       1.0000    0.79290   0.58090   0.12570   Biso      1.000     O          -0.520583           
         O24       1.0000    0.83030   0.73030   0.94870   Biso      1.000     O          -0.470337           
         O25       1.0000    0.86300   0.62580   0.87230   Biso      1.000     O          -0.547583           
         O26       1.0000    0.32770   0.36010   0.95540   Biso      1.000     O          -0.598581           
         O27       1.0000    0.79160   0.99660   0.25520   Biso      1.000     O          -0.570012           
         O28       1.0000    0.64900   0.08680   0.19430   Biso      1.000     O          -0.391219           
         O29       1.0000    0.77700   0.20850   0.10550   Biso      1.000     O          -0.43145  
         O30       1.0000    0.79550   0.36740   0.13420   Biso      1.000     O          -0.558696           
         O31       1.0000    0.12240   0.46820   0.25350   Biso      1.000     O          -0.537759           
         O32       1.0000    0.12900   0.41720   0.34960   Biso      1.000     O          -0.444233           
         O33       1.0000    0.26400   0.23200   0.36070   Biso      1.000     O          -0.5751729999999999           
         O34       1.0000    0.14590   0.09050   0.36230   Biso      1.000     O          -0.5552279999999999           
         O35       1.0000    0.13700   0.87420   0.37230   Biso      1.000     O          -0.547593           
         O36       1.0000    0.16970   0.76970   0.44870   Biso      1.000     O          -0.470369           
         O37       1.0000    0.32770   0.86010   0.54460   Biso      1.000     O          -0.598596           
         O38       1.0000    0.20710   0.91910   0.62570   Biso      1.000     O          -0.520588           
         O39       1.0000    0.20840   0.50340   0.75520   Biso      1.000     O          -0.57001  
         O40       1.0000    0.35100   0.41320   0.69430   Biso      1.000     O          -0.39121100000000003          
         O41       1.0000    0.22300   0.29150   0.60550   Biso      1.000     O          -0.431433           
         O42       1.0000    0.20450   0.13260   0.63420   Biso      1.000     O          -0.5586909999999999           
         O43       1.0000    0.87760   0.03180   0.75350   Biso      1.000     O          -0.537759           
         O44       1.0000    0.87100   0.08280   0.84960   Biso      1.000     O          -0.44423100000000004          
         O45       1.0000    0.73600   0.26800   0.86070   Biso      1.000     O          -0.575151           
         O46       1.0000    0.85410   0.40950   0.86230   Biso      1.000     O          -0.555225           
         O47       1.0000    0.67230   0.63990   0.04460   Biso      1.000     O          -0.598586           
         O48       1.0000    0.20710   0.41910   0.87430   Biso      1.000     O          -0.520588 