
##########################################################################
#               Crystallographic Information Format file
#               Produced by PyCifRW module
#
#  This is a CIF file.  CIF has been adopted by the International
#  Union of Crystallography as the standard for data archiving and
#  transmission.
#
#  For information on this file format, follow the CIF links at
#  http://www.iucr.org
##########################################################################

data_image0

_cell_length_a                          8.9399
_cell_length_b                          13.693
_cell_length_c                          22.103
_cell_angle_alpha                       90
_cell_angle_beta                        90
_cell_angle_gamma                       95.46
_symmetry_space_group_name_H-M          'P 1'
_symmetry_int_tables_number             1
loop_
  _symmetry_equiv_pos_as_xyz
         'x, y, z' 
loop_
  _atom_site_label
  _atom_site_occupancy
  _atom_site_fract_x
  _atom_site_fract_y
  _atom_site_fract_z
  _atom_site_thermal_displace_type
  _atom_site_B_iso_or_equiv
  _atom_site_type_symbol
  _atom_site_charge
         C1        1.0000    0.13520   0.35340   0.07030   Biso      1.000     C          0.559966  
         C2        1.0000    0.76450   0.77320   0.34050   Biso      1.000     C          0.569711  
         C3        1.0000    0.81890   0.54800   0.29400   Biso      1.000     C          0.576272  
         C4        1.0000    0.07140   0.42970   0.02930   Biso      1.000     C          0.109212  
         C5        1.0000    0.09050   0.44600   0.96710   Biso      1.000     C          0.085634  
         C6        1.0000    0.80170   0.31800   0.83770   Biso      1.000     C          0.668063  
         C7        1.0000    0.18980   0.39650   0.92310   Biso      1.000     C          0.653406  
         C8        1.0000    0.08160   0.21160   0.29280   Biso      1.000     C          0.069901  
         C9        1.0000    0.06520   0.30520   0.27170   Biso      1.000     C          0.10506   
         C10       1.0000    0.88070   0.24060   0.20460   Biso      1.000     C          0.101378  
         C11       1.0000    0.13950   0.90340   0.20650   Biso      1.000     C          0.570897  
         C12       1.0000    0.89620   0.14670   0.22710   Biso      1.000     C          0.105423  
         C13       1.0000    0.13950   0.40340   0.29350   Biso      1.000     C          0.570907  
         C14       1.0000    0.76450   0.27320   0.15950   Biso      1.000     C          0.56971   
         C15       1.0000    0.81890   0.04800   0.20600   Biso      1.000     C          0.576276  
         C16       1.0000    0.07140   0.92970   0.47070   Biso      1.000     C          0.109211  
         C17       1.0000    0.09050   0.94600   0.53290   Biso      1.000     C          0.085639  
         C18       1.0000    0.13520   0.85340   0.42970   Biso      1.000     C          0.559956  
         C19       1.0000    0.18980   0.89650   0.57690   Biso      1.000     C          0.653405  
         C20       1.0000    0.91840   0.28840   0.79280   Biso      1.000     C          0.069897  
         C21       1.0000    0.93480   0.19480   0.77170   Biso      1.000     C          0.105064  
         C22       1.0000    0.19830   0.18200   0.33770   Biso      1.000     C          0.668064  
         C23       1.0000    0.19830   0.68200   0.16230   Biso      1.000     C          0.668055  
         C24       1.0000    0.89620   0.64670   0.27290   Biso      1.000     C          0.105421  
         C25       1.0000    0.88070   0.74060   0.29540   Biso      1.000     C          0.101371  
         C26       1.0000    0.81020   0.60350   0.07690   Biso      1.000     C          0.653401  
         C27       1.0000    0.86480   0.64660   0.92970   Biso      1.000     C          0.55996   
         C28       1.0000    0.90950   0.55400   0.03290   Biso      1.000     C          0.085643  
         C29       1.0000    0.92860   0.57030   0.97070   Biso      1.000     C          0.109209  
         C30       1.0000    0.18110   0.45200   0.70600   Biso      1.000     C          0.576265  
         C31       1.0000    0.23550   0.22680   0.65950   Biso      1.000     C          0.569707  
         C32       1.0000    0.86050   0.09660   0.79350   Biso      1.000     C          0.570891  
         C33       1.0000    0.91840   0.78840   0.70720   Biso      1.000     C          0.069898  
         C34       1.0000    0.93480   0.69480   0.72830   Biso      1.000     C          0.105063  
         C35       1.0000    0.11930   0.75940   0.79540   Biso      1.000     C          0.101369  
         C36       1.0000    0.10380   0.85330   0.77290   Biso      1.000     C          0.105429  
         C37       1.0000    0.80170   0.81800   0.66230   Biso      1.000     C          0.668065  
         C38       1.0000    0.86050   0.59660   0.70650   Biso      1.000     C          0.570898  
         C39       1.0000    0.23550   0.72680   0.84050   Biso      1.000     C          0.569717  
         C40       1.0000    0.18110   0.95200   0.79400   Biso      1.000     C          0.576272  
         C41       1.0000    0.92860   0.07030   0.52930   Biso      1.000     C          0.109211  
         C42       1.0000    0.90950   0.05400   0.46710   Biso      1.000     C          0.085638  
         C43       1.0000    0.86480   0.14660   0.57030   Biso      1.000     C          0.559957  
         C44       1.0000    0.81020   0.10350   0.42310   Biso      1.000     C          0.653403  
         C45       1.0000    0.08160   0.71160   0.20720   Biso      1.000     C          0.069907  
         C46       1.0000    0.06520   0.80520   0.22830   Biso      1.000     C          0.105066  
         C47       1.0000    0.11930   0.25940   0.70460   Biso      1.000     C          0.101371  
         C48       1.0000    0.10380   0.35330   0.72710   Biso      1.000     C          0.105425  
         Er1       1.0000    0.01716   0.02390   0.67364   Biso      1.000     Er          1.889701  
         Er2       1.0000    0.45350   0.24456   0.89091   Biso      1.000     Er          1.735561  
         Er3       1.0000    0.01716   0.52390   0.82636   Biso      1.000     Er          1.889703  
         Er4       1.0000    0.54650   0.25544   0.39091   Biso      1.000     Er          1.735495  
         Er5       1.0000    0.98284   0.97610   0.32636   Biso      1.000     Er          1.889709  
         Er6       1.0000    0.54650   0.75544   0.10909   Biso      1.000     Er          1.73547   
         Er7       1.0000    0.98284   0.47610   0.17365   Biso      1.000     Er          1.889708  
         Er8       1.0000    0.45350   0.74456   0.60909   Biso      1.000     Er          1.735524  
         N1        1.0000    0.01700   0.51490   0.94090   Biso      1.000     N          -0.276926           
         N2        1.0000    0.03290   0.18360   0.72720   Biso      1.000     N          -0.308565           
         N3        1.0000    0.00550   0.36430   0.77090   Biso      1.000     N          -0.283914           
         N4        1.0000    0.98300   0.98510   0.44090   Biso      1.000     N          -0.276922           
         N5        1.0000    0.96710   0.31640   0.22720   Biso      1.000     N          -0.308566           
         N6        1.0000    0.99450   0.13570   0.27090   Biso      1.000     N          -0.28391  
         N7        1.0000    0.03290   0.68360   0.77280   Biso      1.000     N          -0.308559           
         N8        1.0000    0.96710   0.81640   0.27280   Biso      1.000     N          -0.308561           
         N9        1.0000    0.99450   0.63570   0.22910   Biso      1.000     N          -0.283917           
         N10       1.0000    0.01700   0.01490   0.55910   Biso      1.000     N          -0.276921           
         N11       1.0000    0.00550   0.86430   0.72910   Biso      1.000     N          -0.283914           
         N12       1.0000    0.98300   0.48510   0.05910   Biso      1.000     N          -0.276913           
         O1        1.0000    0.17070   0.09770   0.36060   Biso      1.000     O          -0.604922           
         O2        1.0000    0.31130   0.24030   0.34570   Biso      1.000     O          -0.663122           
         O3        1.0000    0.17080   0.41640   0.34760   Biso      1.000     O          -0.476388           
         O4        1.0000    0.15410   0.46870   0.25250   Biso      1.000     O          -0.624187           
         O5        1.0000    0.79740   0.35910   0.13810   Biso      1.000     O          -0.636715           
         O6        1.0000    0.64860   0.21940   0.15050   Biso      1.000     O          -0.419557           
         O7        1.0000    0.78930   0.03550   0.15210   Biso      1.000     O          -0.494298           
         O8        1.0000    0.80350   0.98370   0.24770   Biso      1.000     O          -0.656347           
         O9        1.0000    0.15070   0.88040   0.37490   Biso      1.000     O          -0.622634           
         O10       1.0000    0.15750   0.77220   0.45000   Biso      1.000     O          -0.457067           
         O11       1.0000    0.82930   0.40230   0.86060   Biso      1.000     O          -0.604924           
         O12       1.0000    0.17670   0.92150   0.63160   Biso      1.000     O          -0.634831           
         O13       1.0000    0.68870   0.25970   0.84570   Biso      1.000     O          -0.663147           
         O14       1.0000    0.82920   0.08360   0.84760   Biso      1.000     O          -0.476355           
         O15       1.0000    0.84590   0.03130   0.75250   Biso      1.000     O          -0.624168           
         O16       1.0000    0.20260   0.14090   0.63810   Biso      1.000     O          -0.636715           
         O17       1.0000    0.35140   0.28060   0.65050   Biso      1.000     O          -0.419553           
         O18       1.0000    0.21070   0.46450   0.65210   Biso      1.000     O          -0.494281           
         O19       1.0000    0.19650   0.51630   0.74770   Biso      1.000     O          -0.656344           
         O20       1.0000    0.84930   0.61960   0.87490   Biso      1.000     O          -0.622637           
         O21       1.0000    0.84250   0.72780   0.95000   Biso      1.000     O          -0.457069           
         O22       1.0000    0.28120   0.84080   0.55850   Biso      1.000     O          -0.640713           
         O23       1.0000    0.17670   0.42150   0.86840   Biso      1.000     O          -0.634829           
         O24       1.0000    0.15750   0.27220   0.05000   Biso      1.000     O          -0.457058           
         O25       1.0000    0.15070   0.38040   0.12510   Biso      1.000     O          -0.622631           
         O26       1.0000    0.71880   0.65920   0.05850   Biso      1.000     O          -0.640682           
         O27       1.0000    0.82930   0.90230   0.63940   Biso      1.000     O          -0.604924           
         O28       1.0000    0.68870   0.75970   0.65430   Biso      1.000     O          -0.663136           
         O29       1.0000    0.82920   0.58360   0.65240   Biso      1.000     O          -0.476362           
         O30       1.0000    0.84590   0.53130   0.74750   Biso      1.000     O          -0.624165           
         O31       1.0000    0.20260   0.64090   0.86190   Biso      1.000     O          -0.636713           
         O32       1.0000    0.35140   0.78060   0.84950   Biso      1.000     O          -0.419568           
         O33       1.0000    0.21070   0.96450   0.84790   Biso      1.000     O          -0.494295           
         O34       1.0000    0.19650   0.01630   0.75230   Biso      1.000     O          -0.656347           
         O35       1.0000    0.84930   0.11960   0.62510   Biso      1.000     O          -0.622632           
         O36       1.0000    0.84250   0.22780   0.55000   Biso      1.000     O          -0.457072           
         O37       1.0000    0.71880   0.15920   0.44150   Biso      1.000     O          -0.640699           
         O38       1.0000    0.82330   0.07850   0.36840   Biso      1.000     O          -0.634832           
         O39       1.0000    0.17070   0.59770   0.13940   Biso      1.000     O          -0.604905           
         O40       1.0000    0.31130   0.74030   0.15430   Biso      1.000     O          -0.663101           
         O41       1.0000    0.17080   0.91640   0.15240   Biso      1.000     O          -0.476364           
         O42       1.0000    0.15410   0.96870   0.24750   Biso      1.000     O          -0.624166           
         O43       1.0000    0.79740   0.85910   0.36190   Biso      1.000     O          -0.636713           
         O44       1.0000    0.64860   0.71940   0.34950   Biso      1.000     O          -0.419564           
         O45       1.0000    0.78930   0.53550   0.34790   Biso      1.000     O          -0.494314           
         O46       1.0000    0.80350   0.48370   0.25230   Biso      1.000     O          -0.656342           
         O47       1.0000    0.28120   0.34080   0.94150   Biso      1.000     O          -0.640728           
         O48       1.0000    0.82330   0.57850   0.13160   Biso      1.000     O          -0.634829 