
##########################################################################
#               Crystallographic Information Format file
#               Produced by PyCifRW module
#
#  This is a CIF file.  CIF has been adopted by the International
#  Union of Crystallography as the standard for data archiving and
#  transmission.
#
#  For information on this file format, follow the CIF links at
#  http://www.iucr.org
##########################################################################

data_image0

_cell_length_a                          9.675
_cell_length_b                          17.489
_cell_length_c                          14.354
_cell_angle_alpha                       75.416
_cell_angle_beta                        90
_cell_angle_gamma                       90
_symmetry_space_group_name_H-M          'P 1'
_symmetry_int_tables_number             1
loop_
  _symmetry_equiv_pos_as_xyz
         'x, y, z' 
loop_
  _atom_site_label
  _atom_site_occupancy
  _atom_site_fract_x
  _atom_site_fract_y
  _atom_site_fract_z
  _atom_site_thermal_displace_type
  _atom_site_B_iso_or_equiv
  _atom_site_type_symbol
  _atom_site_charge
         C1        1.0000    0.25590   0.72160   0.12690   Biso      1.000     C          0.299201  
         C2        1.0000    0.85260   0.24320   0.60190   Biso      1.000     C          0.276661  
         C3        1.0000    0.75590   0.27840   0.37310   Biso      1.000     C          0.299214  
         C4        1.0000    0.42430   0.99640   0.89620   Biso      1.000     C          0.258549  
         C5        1.0000    0.15380   0.15740   0.05380   Biso      1.000     C          0.268242  
         C6        1.0000    0.13030   0.29970   0.25790   Biso      1.000     C          0.28679499999999997           
         C7        1.0000    0.84580   0.51750   0.05110   Biso      1.000     C          0.298119  
         C8        1.0000    0.64740   0.24320   0.10190   Biso      1.000     C          0.27666599999999997           
         C9        1.0000    0.74410   0.27840   0.87310   Biso      1.000     C          0.299202  
         C10       1.0000    0.92430   0.00360   0.60380   Biso      1.000     C          0.258524  
         C11       1.0000    0.65380   0.84260   0.44620   Biso      1.000     C          0.26823   
         C12       1.0000    0.63030   0.70030   0.24210   Biso      1.000     C          0.286771  
         C13       1.0000    0.34580   0.48250   0.44890   Biso      1.000     C          0.298127  
         C14       1.0000    0.14740   0.75680   0.39810   Biso      1.000     C          0.27666399999999997           
         C15       1.0000    0.24410   0.72160   0.62690   Biso      1.000     C          0.299229  
         C16       1.0000    0.34620   0.15740   0.55380   Biso      1.000     C          0.268235  
         C17       1.0000    0.07570   0.99640   0.39620   Biso      1.000     C          0.25854299999999997           
         C18       1.0000    0.35260   0.75680   0.89810   Biso      1.000     C          0.276667  
         C19       1.0000    0.15420   0.48250   0.94890   Biso      1.000     C          0.29812   
         C20       1.0000    0.86970   0.70030   0.74210   Biso      1.000     C          0.286787  
         C21       1.0000    0.84620   0.84260   0.94620   Biso      1.000     C          0.268253  
         C22       1.0000    0.57570   0.00360   0.10380   Biso      1.000     C          0.258531  
         C23       1.0000    0.65420   0.51750   0.55110   Biso      1.000     C          0.298124  
         C24       1.0000    0.36970   0.29970   0.75790   Biso      1.000     C          0.286796  
         Cd1       1.0000    0.45497   0.67853   0.45142   Biso      1.000     Cd          0.830659  
         Cd2       1.0000    0.04503   0.67853   0.95142   Biso      1.000     Cd          0.830657  
         Cd3       1.0000    0.53772   0.83239   0.04799   Biso      1.000     Cd          0.619197  
         Cd4       1.0000    0.03772   0.16761   0.45201   Biso      1.000     Cd          0.619193  
         Cd5       1.0000    0.54503   0.32147   0.54858   Biso      1.000     Cd          0.8306600000000001  
         Cd6       1.0000    0.46228   0.16761   0.95201   Biso      1.000     Cd          0.619192  
         Cd7       1.0000    0.95497   0.32147   0.04858   Biso      1.000     Cd          0.830659  
         Cd8       1.0000    0.96228   0.83239   0.54799   Biso      1.000     Cd          0.619189  
         N1        1.0000    0.06870   0.31890   0.18780   Biso      1.000     N          -0.37645300000000004          
         N2        1.0000    0.89650   0.57810   0.02360   Biso      1.000     N          -0.390356           
         N3        1.0000    0.76790   0.24370   0.10680   Biso      1.000     N          -0.382749           
         N4        1.0000    0.58370   0.78880   0.45040   Biso      1.000     N          -0.376075           
         N5        1.0000    0.89960   0.06310   0.54990   Biso      1.000     N          -0.376944           
         N6        1.0000    0.08370   0.21120   0.04960   Biso      1.000     N          -0.376083           
         N7        1.0000    0.56870   0.68110   0.31220   Biso      1.000     N          -0.37644099999999997          
         N8        1.0000    0.39650   0.42190   0.47640   Biso      1.000     N          -0.390362           
         N9        1.0000    0.65000   0.23770   0.88180   Biso      1.000     N          -0.372411           
         N10       1.0000    0.39960   0.93690   0.95010   Biso      1.000     N          -0.37695700000000004          
         N11       1.0000    0.60350   0.57810   0.52360   Biso      1.000     N          -0.390358           
         N12       1.0000    0.73210   0.24370   0.60680   Biso      1.000     N          -0.38274400000000003          
         N13       1.0000    0.43130   0.31890   0.68780   Biso      1.000     N          -0.37645500000000004          
         N14       1.0000    0.41630   0.21120   0.54960   Biso      1.000     N          -0.376079           
         N15       1.0000    0.10040   0.93690   0.45010   Biso      1.000     N          -0.37695700000000004          
         N16       1.0000    0.35000   0.76230   0.11820   Biso      1.000     N          -0.372409           
         N17       1.0000    0.23210   0.75630   0.89320   Biso      1.000     N          -0.382754           
         N18       1.0000    0.10350   0.42190   0.97640   Biso      1.000     N          -0.390361           
         N19       1.0000    0.93130   0.68110   0.81220   Biso      1.000     N          -0.37645100000000004          
         N20       1.0000    0.26790   0.75630   0.39320   Biso      1.000     N          -0.38274600000000003          
         N21       1.0000    0.85000   0.23770   0.38180   Biso      1.000     N          -0.372419           
         N22       1.0000    0.15000   0.76230   0.61820   Biso      1.000     N          -0.37242600000000003          
         N23       1.0000    0.60040   0.06310   0.04990   Biso      1.000     N          -0.376945           
         N24       1.0000    0.91630   0.78880   0.95040   Biso      1.000     N          -0.376092           
         S1        1.0000    0.54275   0.91902   0.18031   Biso      1.000     S          -0.101586           
         S2        1.0000    0.37941   0.66377   0.63875   Biso      1.000     S          -0.167705           
         S3        1.0000    0.97787   0.75808   0.40345   Biso      1.000     S          -0.12245299999999999          
         S4        1.0000    0.26830   0.56822   0.40984   Biso      1.000     S          -0.16087100000000001          
         S5        1.0000    0.72118   0.72478   0.14196   Biso      1.000     S          -0.164302           
         S6        1.0000    0.75115   0.91953   0.44469   Biso      1.000     S          -0.145459           
         S7        1.0000    0.95725   0.91902   0.68031   Biso      1.000     S          -0.101574           
         S8        1.0000    0.87941   0.33623   0.86125   Biso      1.000     S          -0.16767200000000002          
         S9        1.0000    0.76830   0.43178   0.09016   Biso      1.000     S          -0.160859           
         S10       1.0000    0.22118   0.27522   0.35804   Biso      1.000     S          -0.16433499999999998          
         S11       1.0000    0.74885   0.91953   0.94469   Biso      1.000     S          -0.145501           
         S12       1.0000    0.25115   0.08047   0.05531   Biso      1.000     S          -0.14548  
         S13       1.0000    0.62059   0.33623   0.36125   Biso      1.000     S          -0.167693           
         S14       1.0000    0.02213   0.24192   0.59655   Biso      1.000     S          -0.122446           
         S15       1.0000    0.73170   0.43178   0.59016   Biso      1.000     S          -0.160879           
         S16       1.0000    0.27882   0.27522   0.85804   Biso      1.000     S          -0.16433699999999998          
         S17       1.0000    0.24885   0.08047   0.55531   Biso      1.000     S          -0.145466           
         S18       1.0000    0.04275   0.08098   0.31969   Biso      1.000     S          -0.101605           
         S19       1.0000    0.12059   0.66377   0.13875   Biso      1.000     S          -0.16767200000000002          
         S20       1.0000    0.52213   0.75808   0.90345   Biso      1.000     S          -0.122464           
         S21       1.0000    0.23170   0.56822   0.90984   Biso      1.000     S          -0.160876           
         S22       1.0000    0.77882   0.72478   0.64196   Biso      1.000     S          -0.164326           
         S23       1.0000    0.45725   0.08098   0.81969   Biso      1.000     S          -0.101611           
         S24       1.0000    0.47787   0.24192   0.09655   Biso      1.000     S          -0.122454 