
##########################################################################
#               Crystallographic Information Format file
#               Produced by PyCifRW module
#
#  This is a CIF file.  CIF has been adopted by the International
#  Union of Crystallography as the standard for data archiving and
#  transmission.
#
#  For information on this file format, follow the CIF links at
#  http://www.iucr.org
##########################################################################

data_image0

_cell_length_a                          8.53
_cell_length_b                          11.28
_cell_length_c                          13.917
_cell_angle_alpha                       90
_cell_angle_beta                        112.75
_cell_angle_gamma                       90
_symmetry_space_group_name_H-M          'P 1'
_symmetry_int_tables_number             1
loop_
  _symmetry_equiv_pos_as_xyz
         'x, y, z' 
loop_
  _atom_site_label
  _atom_site_occupancy
  _atom_site_fract_x
  _atom_site_fract_y
  _atom_site_fract_z
  _atom_site_thermal_displace_type
  _atom_site_B_iso_or_equiv
  _atom_site_type_symbol
  _atom_site_charge
         C1        1.0000    0.04970   0.34670   0.59580   Biso      1.000     C          -0.3127   
         C2        1.0000    0.32840   0.38440   0.34090   Biso      1.000     C          0.552081  
         C3        1.0000    0.33090   0.09560   0.09120   Biso      1.000     C          0.548804  
         C4        1.0000    0.94930   0.23170   0.13050   Biso      1.000     C          0.473313  
         C5        1.0000    0.21880   0.18890   0.74880   Biso      1.000     C          0.185343  
         C6        1.0000    0.04780   0.31510   0.20930   Biso      1.000     C          -0.306622           
         C7        1.0000    0.21880   0.31110   0.24880   Biso      1.000     C          0.185366  
         C8        1.0000    0.22030   0.16200   0.13540   Biso      1.000     C          0.184807  
         C9        1.0000    0.04780   0.18490   0.70930   Biso      1.000     C          -0.306589           
         C10       1.0000    0.04970   0.15330   0.09580   Biso      1.000     C          -0.312687           
         C11       1.0000    0.95220   0.68490   0.79070   Biso      1.000     C          -0.306622           
         C12       1.0000    0.66910   0.90440   0.90880   Biso      1.000     C          0.548797  
         C13       1.0000    0.67160   0.61560   0.65910   Biso      1.000     C          0.552081  
         C14       1.0000    0.78120   0.68890   0.75120   Biso      1.000     C          0.185362  
         C15       1.0000    0.94930   0.26830   0.63050   Biso      1.000     C          0.473318  
         C16       1.0000    0.33090   0.40440   0.59120   Biso      1.000     C          0.548813  
         C17       1.0000    0.32840   0.11560   0.84090   Biso      1.000     C          0.552067  
         C18       1.0000    0.67160   0.88440   0.15910   Biso      1.000     C          0.552067  
         C19       1.0000    0.66910   0.59560   0.40880   Biso      1.000     C          0.548817  
         C20       1.0000    0.05070   0.73170   0.36950   Biso      1.000     C          0.47332700000000005           
         C21       1.0000    0.95030   0.84670   0.90420   Biso      1.000     C          -0.312712           
         C22       1.0000    0.95220   0.81510   0.29070   Biso      1.000     C          -0.306638           
         C23       1.0000    0.78120   0.81110   0.25120   Biso      1.000     C          0.185384  
         C24       1.0000    0.77970   0.66200   0.36460   Biso      1.000     C          0.184818  
         C25       1.0000    0.77970   0.83800   0.86460   Biso      1.000     C          0.18482300000000002           
         C26       1.0000    0.95030   0.65330   0.40420   Biso      1.000     C          -0.312682           
         C27       1.0000    0.05070   0.76830   0.86950   Biso      1.000     C          0.473315  
         C28       1.0000    0.22030   0.33800   0.63540   Biso      1.000     C          0.184833  
         Cu1       1.0000    0.61642   0.41223   0.53093   Biso      1.000     Cu          0.8811379999999999  
         Cu2       1.0000    0.61642   0.08777   0.03093   Biso      1.000     Cu          0.881065  
         Cu3       1.0000    0.38358   0.58777   0.46907   Biso      1.000     Cu          0.8810709999999999  
         Cu4       1.0000    0.38358   0.91223   0.96907   Biso      1.000     Cu          0.881042  
         H1        1.0000    0.99270   0.12780   0.73310   Biso      1.000     H          0.180128  
         H2        1.0000    0.99620   0.40390   0.54570   Biso      1.000     H          0.174741  
         H3        1.0000    0.99270   0.37220   0.23310   Biso      1.000     H          0.180125  
         H4        1.0000    0.00730   0.62780   0.76690   Biso      1.000     H          0.180117  
         H5        1.0000    0.99620   0.09610   0.04570   Biso      1.000     H          0.17474800000000001           
         H6        1.0000    0.00730   0.87220   0.26690   Biso      1.000     H          0.18013800000000002           
         H7        1.0000    0.00380   0.59610   0.45430   Biso      1.000     H          0.17474   
         H8        1.0000    0.00380   0.90390   0.95430   Biso      1.000     H          0.174749  
         O1        1.0000    0.26790   0.01800   0.85064   Biso      1.000     O          -0.509177           
         O2        1.0000    0.69120   0.76280   0.78717   Biso      1.000     O          -0.084615           
         O3        1.0000    0.20870   0.77100   0.90361   Biso      1.000     O          -0.46009099999999997          
         O4        1.0000    0.73060   0.99970   0.95490   Biso      1.000     O          -0.511192           
         O5        1.0000    0.53310   0.85570   0.89990   Biso      1.000     O          -0.491942           
         O6        1.0000    0.46640   0.16160   0.89940   Biso      1.000     O          -0.504156           
         O7        1.0000    0.26790   0.48200   0.35064   Biso      1.000     O          -0.509108           
         O8        1.0000    0.26940   0.49970   0.54510   Biso      1.000     O          -0.511128           
         O9        1.0000    0.69120   0.73720   0.28717   Biso      1.000     O          -0.0846   
         O10       1.0000    0.20870   0.72900   0.40361   Biso      1.000     O          -0.4601   
         O11       1.0000    0.73060   0.50030   0.45490   Biso      1.000     O          -0.511135           
         O12       1.0000    0.53310   0.64430   0.39990   Biso      1.000     O          -0.49185  
         O13       1.0000    0.53360   0.83840   0.10060   Biso      1.000     O          -0.504151           
         O14       1.0000    0.73210   0.98200   0.14936   Biso      1.000     O          -0.509177           
         O15       1.0000    0.46690   0.35570   0.60010   Biso      1.000     O          -0.491861           
         O16       1.0000    0.30880   0.23720   0.21283   Biso      1.000     O          -0.084612           
         O17       1.0000    0.26940   0.00030   0.04510   Biso      1.000     O          -0.511191           
         O18       1.0000    0.46690   0.14430   0.10010   Biso      1.000     O          -0.491942           
         O19       1.0000    0.46640   0.33840   0.39940   Biso      1.000     O          -0.5040819999999999           
         O20       1.0000    0.53360   0.66160   0.60060   Biso      1.000     O          -0.504073           
         O21       1.0000    0.30880   0.26280   0.71283   Biso      1.000     O          -0.084604           
         O22       1.0000    0.79130   0.27100   0.59639   Biso      1.000     O          -0.460092           
         O23       1.0000    0.79130   0.22900   0.09639   Biso      1.000     O          -0.46008999999999994          
         O24       1.0000    0.73210   0.51800   0.64936   Biso      1.000     O          -0.509115 