
##########################################################################
#               Crystallographic Information Format file
#               Produced by PyCifRW module
#
#  This is a CIF file.  CIF has been adopted by the International
#  Union of Crystallography as the standard for data archiving and
#  transmission.
#
#  For information on this file format, follow the CIF links at
#  http://www.iucr.org
##########################################################################

data_image0

_cell_length_a                          7.68
_cell_length_b                          10.029
_cell_length_c                          25.786
_cell_angle_alpha                       90
_cell_angle_beta                        93.779
_cell_angle_gamma                       90
_symmetry_space_group_name_H-M          'P 1'
_symmetry_int_tables_number             1
loop_
  _symmetry_equiv_pos_as_xyz
         'x, y, z' 
loop_
  _atom_site_label
  _atom_site_occupancy
  _atom_site_fract_x
  _atom_site_fract_y
  _atom_site_fract_z
  _atom_site_thermal_displace_type
  _atom_site_B_iso_or_equiv
  _atom_site_type_symbol
  _atom_site_charge
         C1        1.0000    0.61780   0.94770   0.71810   Biso      1.000     C          0.300695  
         C2        1.0000    0.97530   0.77980   0.07700   Biso      1.000     C          -0.158035           
         C3        1.0000    0.07210   0.73710   0.12130   Biso      1.000     C          0.106964  
         C4        1.0000    0.07100   0.94530   0.15673   Biso      1.000     C          0.095415  
         C5        1.0000    0.97560   0.99670   0.11466   Biso      1.000     C          -0.165116           
         C6        1.0000    0.92510   0.91100   0.07391   Biso      1.000     C          0.053679  
         C7        1.0000    0.82020   0.96430   0.02918   Biso      1.000     C          0.291442  
         C8        1.0000    0.59400   0.45670   0.66862   Biso      1.000     C          0.102378  
         C9        1.0000    0.51330   0.50350   0.62323   Biso      1.000     C          -0.157672           
         C10       1.0000    0.40960   0.41830   0.59221   Biso      1.000     C          0.054705  
         C11       1.0000    0.38750   0.28960   0.60970   Biso      1.000     C          -0.159419           
         C12       1.0000    0.47270   0.25010   0.65580   Biso      1.000     C          0.105202  
         C13       1.0000    0.90380   0.57220   0.78545   Biso      1.000     C          0.30838   
         C14       1.0000    0.32900   0.46710   0.54380   Biso      1.000     C          0.303501  
         C15       1.0000    0.07490   0.41100   0.42609   Biso      1.000     C          0.053676  
         C16       1.0000    0.02440   0.49670   0.38534   Biso      1.000     C          -0.165123           
         C17       1.0000    0.92900   0.44530   0.34327   Biso      1.000     C          0.095422  
         C18       1.0000    0.92790   0.23710   0.37870   Biso      1.000     C          0.106963  
         C19       1.0000    0.02470   0.27980   0.42300   Biso      1.000     C          -0.15803  
         C20       1.0000    0.09620   0.07220   0.71455   Biso      1.000     C          0.30838   
         C21       1.0000    0.38220   0.44770   0.78190   Biso      1.000     C          0.300695  
         C22       1.0000    0.40600   0.95670   0.83138   Biso      1.000     C          0.102378  
         C23       1.0000    0.48670   0.00350   0.87677   Biso      1.000     C          -0.157672           
         C24       1.0000    0.59040   0.91830   0.90779   Biso      1.000     C          0.054705  
         C25       1.0000    0.61250   0.78960   0.89030   Biso      1.000     C          -0.159419           
         C26       1.0000    0.17980   0.46430   0.47082   Biso      1.000     C          0.291443  
         C27       1.0000    0.40600   0.54330   0.33138   Biso      1.000     C          0.102378  
         C28       1.0000    0.48670   0.49650   0.37677   Biso      1.000     C          -0.157672           
         C29       1.0000    0.59040   0.58170   0.40779   Biso      1.000     C          0.054705  
         C30       1.0000    0.38220   0.05230   0.28190   Biso      1.000     C          0.300695  
         C31       1.0000    0.09620   0.42780   0.21455   Biso      1.000     C          0.30838   
         C32       1.0000    0.02470   0.22020   0.92300   Biso      1.000     C          -0.158035           
         C33       1.0000    0.92790   0.26290   0.87870   Biso      1.000     C          0.106964  
         C34       1.0000    0.92900   0.05470   0.84327   Biso      1.000     C          0.095415  
         C35       1.0000    0.02440   0.00330   0.88534   Biso      1.000     C          -0.165116           
         C36       1.0000    0.07490   0.08900   0.92609   Biso      1.000     C          0.053679  
         C37       1.0000    0.17980   0.03570   0.97082   Biso      1.000     C          0.291442  
         C38       1.0000    0.32900   0.03290   0.04380   Biso      1.000     C          0.303502  
         C39       1.0000    0.47270   0.24990   0.15580   Biso      1.000     C          0.105199  
         C40       1.0000    0.38750   0.21040   0.10970   Biso      1.000     C          -0.159416           
         C41       1.0000    0.40960   0.08170   0.09221   Biso      1.000     C          0.054705  
         C42       1.0000    0.51330   0.99650   0.12323   Biso      1.000     C          -0.157677           
         C43       1.0000    0.59400   0.04330   0.16862   Biso      1.000     C          0.102383  
         C44       1.0000    0.61780   0.55230   0.21810   Biso      1.000     C          0.300695  
         C45       1.0000    0.90380   0.92780   0.28545   Biso      1.000     C          0.30838   
         C46       1.0000    0.97530   0.72020   0.57700   Biso      1.000     C          -0.158035           
         C47       1.0000    0.07210   0.76290   0.62130   Biso      1.000     C          0.106964  
         C48       1.0000    0.07100   0.55470   0.65673   Biso      1.000     C          0.095415  
         C49       1.0000    0.97560   0.50330   0.61466   Biso      1.000     C          -0.165116           
         C50       1.0000    0.92510   0.58900   0.57391   Biso      1.000     C          0.053679  
         C51       1.0000    0.82020   0.53570   0.52918   Biso      1.000     C          0.291442  
         C52       1.0000    0.67100   0.53290   0.45620   Biso      1.000     C          0.303502  
         C53       1.0000    0.52730   0.74990   0.34420   Biso      1.000     C          0.105199  
         C54       1.0000    0.61250   0.71040   0.39030   Biso      1.000     C          -0.159416           
         C55       1.0000    0.52730   0.75010   0.84420   Biso      1.000     C          0.105202  
         C56       1.0000    0.67100   0.96710   0.95620   Biso      1.000     C          0.303502  
         Cd1       1.0000    0.73472   0.25815   0.76152   Biso      1.000     Cd          0.723558  
         Cd2       1.0000    0.26528   0.75815   0.73848   Biso      1.000     Cd          0.723558  
         Cd3       1.0000    0.26528   0.74185   0.23848   Biso      1.000     Cd          0.723558  
         Cd4       1.0000    0.73472   0.24185   0.26152   Biso      1.000     Cd          0.723558  
         H1        1.0000    0.89370   0.35180   0.87660   Biso      1.000     H          0.098939  
         H2        1.0000    0.54290   0.66330   0.83280   Biso      1.000     H          0.100029  
         H3        1.0000    0.68400   0.73030   0.90950   Biso      1.000     H          0.136023  
         H4        1.0000    0.47190   0.09170   0.88670   Biso      1.000     H          0.130827  
         H5        1.0000    0.33640   0.01510   0.81110   Biso      1.000     H          0.089901  
         H6        1.0000    0.05470   0.22090   0.44990   Biso      1.000     H          0.141605  
         H7        1.0000    0.89370   0.14820   0.37660   Biso      1.000     H          0.098939  
         H8        1.0000    0.05470   0.58650   0.38670   Biso      1.000     H          0.132559  
         H9        1.0000    0.94530   0.08650   0.11330   Biso      1.000     H          0.132558  
         H10       1.0000    0.45710   0.16330   0.66720   Biso      1.000     H          0.100029  
         H11       1.0000    0.31600   0.23030   0.59050   Biso      1.000     H          0.136023  
         H12       1.0000    0.66360   0.51510   0.68890   Biso      1.000     H          0.089901  
         H13       1.0000    0.05470   0.27910   0.94990   Biso      1.000     H          0.141605  
         H14       1.0000    0.89510   0.50260   0.31610   Biso      1.000     H          0.09638   
         H15       1.0000    0.10490   0.00260   0.18390   Biso      1.000     H          0.09638   
         H16       1.0000    0.52810   0.59170   0.61330   Biso      1.000     H          0.130827  
         H17       1.0000    0.94530   0.72090   0.05010   Biso      1.000     H          0.141605  
         H18       1.0000    0.10630   0.64820   0.12340   Biso      1.000     H          0.098939  
         H19       1.0000    0.89510   0.99740   0.81610   Biso      1.000     H          0.09638   
         H20       1.0000    0.05470   0.91350   0.88670   Biso      1.000     H          0.132559  
         H21       1.0000    0.45710   0.33670   0.16720   Biso      1.000     H          0.100029  
         H22       1.0000    0.52810   0.90830   0.11330   Biso      1.000     H          0.130828  
         H23       1.0000    0.66360   0.98490   0.18890   Biso      1.000     H          0.0899    
         H24       1.0000    0.94530   0.77910   0.55010   Biso      1.000     H          0.141605  
         H25       1.0000    0.31600   0.26970   0.09050   Biso      1.000     H          0.136023  
         H26       1.0000    0.10490   0.49740   0.68390   Biso      1.000     H          0.09638   
         H27       1.0000    0.94530   0.41350   0.61330   Biso      1.000     H          0.132559  
         H28       1.0000    0.54290   0.83670   0.33280   Biso      1.000     H          0.100029  
         H29       1.0000    0.68400   0.76970   0.40950   Biso      1.000     H          0.136023  
         H30       1.0000    0.47190   0.40830   0.38670   Biso      1.000     H          0.130827  
         H31       1.0000    0.10630   0.85180   0.62340   Biso      1.000     H          0.098939  
         H32       1.0000    0.33640   0.48490   0.31110   Biso      1.000     H          0.089901  
         N1        1.0000    0.42220   0.83210   0.81487   Biso      1.000     N          -0.204365           
         N2        1.0000    0.66500   0.08680   0.97482   Biso      1.000     N          -0.248738           
         N3        1.0000    0.76170   0.08410   0.02293   Biso      1.000     N          -0.243786           
         N4        1.0000    0.11800   0.81770   0.16091   Biso      1.000     N          -0.203641           
         N5        1.0000    0.84720   0.46910   0.77627   Biso      1.000     N          -0.469556           
         N6        1.0000    0.42220   0.66790   0.31487   Biso      1.000     N          -0.204364           
         N7        1.0000    0.66500   0.41320   0.47482   Biso      1.000     N          -0.248738           
         N8        1.0000    0.34120   0.54200   0.75839   Biso      1.000     N          -0.464421           
         N9        1.0000    0.76170   0.41590   0.52293   Biso      1.000     N          -0.243786           
         N10       1.0000    0.11800   0.68230   0.66091   Biso      1.000     N          -0.203641           
         N11       1.0000    0.65880   0.04200   0.74161   Biso      1.000     N          -0.464421           
         N12       1.0000    0.15280   0.96910   0.72373   Biso      1.000     N          -0.469556           
         N13       1.0000    0.88200   0.18230   0.83909   Biso      1.000     N          -0.203641           
         N14       1.0000    0.23830   0.58410   0.47707   Biso      1.000     N          -0.243788           
         N15       1.0000    0.33500   0.58680   0.52518   Biso      1.000     N          -0.248735           
         N16       1.0000    0.57780   0.33210   0.68513   Biso      1.000     N          -0.204365           
         N17       1.0000    0.57780   0.16790   0.18513   Biso      1.000     N          -0.204365           
         N18       1.0000    0.33500   0.91320   0.02518   Biso      1.000     N          -0.248737           
         N19       1.0000    0.23830   0.91590   0.97707   Biso      1.000     N          -0.243786           
         N20       1.0000    0.15280   0.53090   0.22373   Biso      1.000     N          -0.469556           
         N21       1.0000    0.34120   0.95800   0.25839   Biso      1.000     N          -0.464421           
         N22       1.0000    0.84720   0.03090   0.27627   Biso      1.000     N          -0.469556           
         N23       1.0000    0.88200   0.31770   0.33909   Biso      1.000     N          -0.203642           
         N24       1.0000    0.65880   0.45800   0.24161   Biso      1.000     N          -0.464421           
         O1        1.0000    0.23170   0.38320   0.51169   Biso      1.000     O          -0.174133           
         O2        1.0000    0.76830   0.88320   0.98831   Biso      1.000     O          -0.174133           
         O3        1.0000    0.23170   0.11680   0.01169   Biso      1.000     O          -0.174133           
         O4        1.0000    0.76830   0.61680   0.48831   Biso      1.000     O          -0.174133           
         S1        1.0000    0.01920   0.27865   0.20196   Biso      1.000     S          -0.364129           
         S2        1.0000    0.55230   0.68506   0.18445   Biso      1.000     S          -0.35917  
         S3        1.0000    0.98080   0.77865   0.29804   Biso      1.000     S          -0.364129           
         S4        1.0000    0.55230   0.81494   0.68445   Biso      1.000     S          -0.35917  
         S5        1.0000    0.98080   0.72135   0.79804   Biso      1.000     S          -0.364129           
         S6        1.0000    0.44770   0.31494   0.81555   Biso      1.000     S          -0.35917  
         S7        1.0000    0.44770   0.18506   0.31555   Biso      1.000     S          -0.35917  
         S8        1.0000    0.01920   0.22135   0.70196   Biso      1.000     S          -0.364129 