
##########################################################################
#               Crystallographic Information Format file
#               Produced by PyCifRW module
#
#  This is a CIF file.  CIF has been adopted by the International
#  Union of Crystallography as the standard for data archiving and
#  transmission.
#
#  For information on this file format, follow the CIF links at
#  http://www.iucr.org
##########################################################################

data_image0

_cell_length_a                          6.9007
_cell_length_b                          7.4722
_cell_length_c                          8.2521
_cell_angle_alpha                       90.227
_cell_angle_beta                        108.67
_cell_angle_gamma                       93.332
_symmetry_space_group_name_H-M          'P 1'
_symmetry_int_tables_number             1
loop_
  _symmetry_equiv_pos_as_xyz
         'x, y, z' 
loop_
  _atom_site_label
  _atom_site_occupancy
  _atom_site_fract_x
  _atom_site_fract_y
  _atom_site_fract_z
  _atom_site_thermal_displace_type
  _atom_site_B_iso_or_equiv
  _atom_site_type_symbol
  _atom_site_charge
         C1        1.0000    0.53660   0.06829   0.66661   Biso      1.000     C          -0.06617999999999999          
         C2        1.0000    0.65330   0.76151   0.78363   Biso      1.000     C          0.6743979999999999  
         C3        1.0000    0.42190   0.84363   0.16004   Biso      1.000     C          0.669428  
         C4        1.0000    0.46340   0.93171   0.33339   Biso      1.000     C          -0.066179           
         C5        1.0000    0.54559   0.82615   0.47559   Biso      1.000     C          -0.124402           
         C6        1.0000    0.41748   0.10773   0.35876   Biso      1.000     C          -0.0483   
         C7        1.0000    0.34670   0.23849   0.21637   Biso      1.000     C          0.6743979999999999  
         C8        1.0000    0.57810   0.15637   0.83996   Biso      1.000     C          0.669428  
         C9        1.0000    0.58252   0.89227   0.64124   Biso      1.000     C          -0.048298           
         C10       1.0000    0.45441   0.17385   0.52441   Biso      1.000     C          -0.124401           
         H1        1.0000    0.57620   0.70930   0.45910   Biso      1.000     H          0.13528900000000002           
         H2        1.0000    0.42380   0.29070   0.54090   Biso      1.000     H          0.13528900000000002           
         Mg1       1.0000    0.50000   0.50000   0.00000   Biso      1.000     Mg          1.452639  
         Mg2       1.0000    0.00000   0.00000   0.00000   Biso      1.000     Mg          1.4701540000000002  
         O1        1.0000    0.54933   0.73552   0.14641   Biso      1.000     O          -0.663316           
         O2        1.0000    0.47861   0.35781   0.20938   Biso      1.000     O          -0.646462           
         O3        1.0000    0.16376   0.22634   0.11849   Biso      1.000     O          -0.703341           
         O4        1.0000    0.26324   0.87625   0.04164   Biso      1.000     O          -0.688513           
         O5        1.0000    0.45067   0.26448   0.85359   Biso      1.000     O          -0.663316           
         O6        1.0000    0.52139   0.64219   0.79062   Biso      1.000     O          -0.646461           
         O7        1.0000    0.83624   0.77366   0.88151   Biso      1.000     O          -0.703341           
         O8        1.0000    0.73676   0.12375   0.95836   Biso      1.000     O          -0.688513 