
##########################################################################
#               Crystallographic Information Format file
#               Produced by PyCifRW module
#
#  This is a CIF file.  CIF has been adopted by the International
#  Union of Crystallography as the standard for data archiving and
#  transmission.
#
#  For information on this file format, follow the CIF links at
#  http://www.iucr.org
##########################################################################

data_image0

_cell_length_a                          10.2067
_cell_length_b                          11.1297
_cell_length_c                          13.9251
_cell_angle_alpha                       112.663
_cell_angle_beta                        104.574
_cell_angle_gamma                       94.796
_symmetry_space_group_name_H-M          'P 1'
_symmetry_int_tables_number             1
loop_
  _symmetry_equiv_pos_as_xyz
         'x, y, z' 
loop_
  _atom_site_label
  _atom_site_occupancy
  _atom_site_fract_x
  _atom_site_fract_y
  _atom_site_fract_z
  _atom_site_thermal_displace_type
  _atom_site_B_iso_or_equiv
  _atom_site_type_symbol
  _atom_site_charge
         C1        1.0000    0.68770   0.06910   0.74220   Biso      1.000     C          0.588986  
         C2        1.0000    0.32380   0.67500   0.68250   Biso      1.000     C          0.007263  
         C3        1.0000    0.24050   0.69860   0.75010   Biso      1.000     C          -0.198072           
         C4        1.0000    0.20030   0.60280   0.78280   Biso      1.000     C          0.276458  
         C5        1.0000    0.06470   0.53970   0.88050   Biso      1.000     C          0.157696  
         C6        1.0000    0.13770   0.75790   0.08810   Biso      1.000     C          -0.231804           
         C7        1.0000    0.00100   0.69450   0.02860   Biso      1.000     C          0.271081  
         C8        1.0000    0.89280   0.73290   0.06870   Biso      1.000     C          -0.226613           
         C9        1.0000    0.80730   0.87160   0.22100   Biso      1.000     C          0.538111  
         C10       1.0000    0.92290   0.83490   0.17360   Biso      1.000     C          0.006459  
         C11       1.0000    0.05850   0.89840   0.23480   Biso      1.000     C          -0.140759           
         C12       1.0000    0.16550   0.86210   0.19140   Biso      1.000     C          0.017509  
         C13       1.0000    0.31230   0.93090   0.25780   Biso      1.000     C          0.588696  
         C14       1.0000    0.32420   0.45760   0.68130   Biso      1.000     C          0.01869   
         C15       1.0000    0.37230   0.32820   0.64680   Biso      1.000     C          0.61026   
         C16       1.0000    0.24450   0.48330   0.75200   Biso      1.000     C          -0.243113           
         C17       1.0000    0.83450   0.13790   0.80860   Biso      1.000     C          0.017386  
         C18       1.0000    0.94150   0.10160   0.76520   Biso      1.000     C          -0.140718           
         C19       1.0000    0.75550   0.51670   0.24800   Biso      1.000     C          -0.243146           
         C20       1.0000    0.62770   0.67180   0.35320   Biso      1.000     C          0.609992  
         C21       1.0000    0.67580   0.54240   0.31870   Biso      1.000     C          0.018778  
         C22       1.0000    0.63730   0.44810   0.35390   Biso      1.000     C          -0.139158           
         C23       1.0000    0.62900   0.21890   0.34940   Biso      1.000     C          0.620003  
         C24       1.0000    0.67620   0.32500   0.31750   Biso      1.000     C          0.007371  
         C25       1.0000    0.37100   0.78110   0.65060   Biso      1.000     C          0.620301  
         C26       1.0000    0.75950   0.30140   0.24990   Biso      1.000     C          -0.198213           
         C27       1.0000    0.93530   0.46030   0.11950   Biso      1.000     C          0.157688  
         C28       1.0000    0.86230   0.24210   0.91190   Biso      1.000     C          -0.231762           
         C29       1.0000    0.99900   0.30550   0.97140   Biso      1.000     C          0.271012  
         C30       1.0000    0.10720   0.26710   0.93130   Biso      1.000     C          -0.226668           
         C31       1.0000    0.19270   0.12840   0.77900   Biso      1.000     C          0.538381  
         C32       1.0000    0.07710   0.16510   0.82640   Biso      1.000     C          0.006453  
         C33       1.0000    0.79970   0.39720   0.21720   Biso      1.000     C          0.276569  
         C34       1.0000    0.36270   0.55190   0.64610   Biso      1.000     C          -0.139187           
         Co1       1.0000    0.49430   0.13633   0.49098   Biso      1.000     Co          1.081644  
         Co2       1.0000    0.61382   0.92176   0.30240   Biso      1.000     Co          1.006105  
         Co3       1.0000    0.50570   0.86367   0.50902   Biso      1.000     Co          1.081586  
         Co4       1.0000    0.38618   0.07824   0.69760   Biso      1.000     Co          1.010563  
         H1        1.0000    0.58420   0.46740   0.40310   Biso      1.000     H          0.13714   
         H2        1.0000    0.77910   0.57970   0.22150   Biso      1.000     H          0.134192  
         H3        1.0000    0.07850   0.96670   0.30650   Biso      1.000     H          0.143173  
         H4        1.0000    0.21060   0.73080   0.05920   Biso      1.000     H          0.145044  
         H5        1.0000    0.14050   0.53000   0.93570   Biso      1.000     H          0.062803  
         H6        1.0000    0.02710   0.45230   0.81690   Biso      1.000     H          0.081373  
         H7        1.0000    0.21110   0.78090   0.77400   Biso      1.000     H          0.153512  
         H8        1.0000    0.79990   0.69070   0.02570   Biso      1.000     H          0.153963  
         H9        1.0000    0.22090   0.42030   0.77850   Biso      1.000     H          0.134184  
         H10       1.0000    0.92150   0.03330   0.69350   Biso      1.000     H          0.143154  
         H11       1.0000    0.20010   0.30930   0.97430   Biso      1.000     H          0.153935  
         H12       1.0000    0.78940   0.26920   0.94080   Biso      1.000     H          0.145024  
         H13       1.0000    0.85950   0.47000   0.06430   Biso      1.000     H          0.0628    
         H14       1.0000    0.97290   0.54770   0.18310   Biso      1.000     H          0.081351  
         H15       1.0000    0.41580   0.53260   0.59690   Biso      1.000     H          0.137076  
         H16       1.0000    0.78890   0.21910   0.22600   Biso      1.000     H          0.153524  
         O1        1.0000    0.59400   0.12120   0.77598   Biso      1.000     O          -0.471965           
         O2        1.0000    0.31450   0.15530   0.84112   Biso      1.000     O          -0.440815           
         O3        1.0000    0.16330   0.06930   0.67549   Biso      1.000     O          -0.439726           
         O4        1.0000    0.04010   0.41270   0.07443   Biso      1.000     O          -0.227877           
         O5        1.0000    0.64360   0.10360   0.29532   Biso      1.000     O          -0.486567           
         O6        1.0000    0.57870   0.25310   0.42769   Biso      1.000     O          -0.518118           
         O7        1.0000    0.61370   0.71920   0.44884   Biso      1.000     O          -0.500767           
         O8        1.0000    0.66950   0.96300   0.65653   Biso      1.000     O          -0.505776           
         O9        1.0000    0.88650   0.36260   0.15274   Biso      1.000     O          -0.233347           
         O10       1.0000    0.60680   0.98950   0.45646   Biso      1.000     O          -0.707144           
         O11       1.0000    0.40600   0.87880   0.22402   Biso      1.000     O          -0.470962           
         O12       1.0000    0.38630   0.28080   0.55116   Biso      1.000     O          -0.500826           
         O13       1.0000    0.35640   0.89640   0.70468   Biso      1.000     O          -0.488427           
         O14       1.0000    0.42130   0.74690   0.57231   Biso      1.000     O          -0.518353           
         O15       1.0000    0.11350   0.63740   0.84726   Biso      1.000     O          -0.233369           
         O16       1.0000    0.95990   0.58730   0.92557   Biso      1.000     O          -0.22784  
         O17       1.0000    0.83670   0.93070   0.32451   Biso      1.000     O          -0.438291           
         O18       1.0000    0.68550   0.84470   0.15888   Biso      1.000     O          -0.440775           
         O19       1.0000    0.33050   0.03700   0.34347   Biso      1.000     O          -0.505765           
         O20       1.0000    0.60550   0.72640   0.28907   Biso      1.000     O          -0.500914           
         O21       1.0000    0.39450   0.27360   0.71093   Biso      1.000     O          -0.502677           
         O22       1.0000    0.39320   0.01050   0.54354   Biso      1.000     O          -0.707775 