
##########################################################################
#               Crystallographic Information Format file
#               Produced by PyCifRW module
#
#  This is a CIF file.  CIF has been adopted by the International
#  Union of Crystallography as the standard for data archiving and
#  transmission.
#
#  For information on this file format, follow the CIF links at
#  http://www.iucr.org
##########################################################################

data_image0

_cell_length_a                          11.1099
_cell_length_b                          13.8909
_cell_length_c                          22.485
_cell_angle_alpha                       90
_cell_angle_beta                        90
_cell_angle_gamma                       90
_symmetry_space_group_name_H-M          'P 1'
_symmetry_int_tables_number             1
loop_
  _symmetry_equiv_pos_as_xyz
         'x, y, z' 
loop_
  _atom_site_label
  _atom_site_occupancy
  _atom_site_fract_x
  _atom_site_fract_y
  _atom_site_fract_z
  _atom_site_thermal_displace_type
  _atom_site_B_iso_or_equiv
  _atom_site_type_symbol
  _atom_site_charge
         C1        1.0000    0.83990   0.17740   0.23776   Biso      1.000     C          -0.13828  
         C2        1.0000    0.07350   0.81599   0.90297   Biso      1.000     C          -0.007053           
         C3        1.0000    0.05090   0.88205   0.85715   Biso      1.000     C          -0.24187199999999998          
         C4        1.0000    0.97010   0.95690   0.86815   Biso      1.000     C          0.270044  
         C5        1.0000    0.91620   0.96741   0.92346   Biso      1.000     C          -0.211497           
         C6        1.0000    0.94100   0.90250   0.96877   Biso      1.000     C          -0.011059000000000001         
         C7        1.0000    0.88650   0.91723   0.02909   Biso      1.000     C          0.630471  
         C8        1.0000    0.75870   0.03390   0.18001   Biso      1.000     C          0.610004  
         C9        1.0000    0.91840   0.32120   0.29568   Biso      1.000     C          0.5599649999999999  
         C10       1.0000    0.70620   0.30910   0.26218   Biso      1.000     C          -0.249802           
         C11       1.0000    0.81980   0.26735   0.26400   Biso      1.000     C          0.020857  
         C12       1.0000    0.74580   0.13180   0.20752   Biso      1.000     C          -0.018151           
         C13       1.0000    0.63450   0.17561   0.20363   Biso      1.000     C          -0.244716           
         C14       1.0000    0.01700   0.82500   0.95739   Biso      1.000     C          -0.143264           
         C15       1.0000    0.61330   0.26332   0.23234   Biso      1.000     C          0.268472  
         C16       1.0000    0.50530   0.47040   0.22638   Biso      1.000     C          -0.043867           
         C17       1.0000    0.65760   0.76778   0.10697   Biso      1.000     C          0.6166520000000001  
         C18       1.0000    0.51700   0.67500   0.04261   Biso      1.000     C          -0.143264           
         C19       1.0000    0.57350   0.68401   0.09703   Biso      1.000     C          -0.007054           
         C20       1.0000    0.55090   0.61795   0.14285   Biso      1.000     C          -0.241873           
         C21       1.0000    0.47010   0.54310   0.13185   Biso      1.000     C          0.270044  
         C22       1.0000    0.41620   0.53259   0.07654   Biso      1.000     C          -0.21149899999999996          
         C23       1.0000    0.38650   0.58277   0.97091   Biso      1.000     C          0.630472  
         C24       1.0000    0.74130   0.96610   0.68001   Biso      1.000     C          0.610003  
         C25       1.0000    0.58160   0.67880   0.79568   Biso      1.000     C          0.5599649999999999  
         C26       1.0000    0.79380   0.69090   0.76218   Biso      1.000     C          -0.24980300000000003          
         C27       1.0000    0.68020   0.73265   0.76400   Biso      1.000     C          0.020857  
         C28       1.0000    0.46490   0.38128   0.25859   Biso      1.000     C          -0.026844           
         C29       1.0000    0.66010   0.82260   0.73776   Biso      1.000     C          -0.13828  
         C30       1.0000    0.15760   0.73222   0.89303   Biso      1.000     C          0.6166550000000001  
         C31       1.0000    0.96490   0.11872   0.74141   Biso      1.000     C          -0.026844           
         C32       1.0000    0.24130   0.53390   0.31999   Biso      1.000     C          0.610003  
         C33       1.0000    0.08160   0.82120   0.20432   Biso      1.000     C          0.559971  
         C34       1.0000    0.29380   0.80910   0.23782   Biso      1.000     C          -0.24980300000000003          
         C35       1.0000    0.18020   0.76735   0.23600   Biso      1.000     C          0.020857  
         C36       1.0000    0.16010   0.67740   0.26224   Biso      1.000     C          -0.13827899999999999          
         C37       1.0000    0.25420   0.63180   0.29248   Biso      1.000     C          -0.01815  
         C38       1.0000    0.36550   0.67561   0.29637   Biso      1.000     C          -0.244716           
         C39       1.0000    0.38670   0.76332   0.26766   Biso      1.000     C          0.268473  
         C40       1.0000    0.53510   0.88128   0.24141   Biso      1.000     C          -0.026843000000000002         
         C41       1.0000    0.49470   0.97040   0.27362   Biso      1.000     C          -0.043867           
         C42       1.0000    0.34240   0.26778   0.39303   Biso      1.000     C          0.61665   
         C43       1.0000    0.48300   0.17500   0.45739   Biso      1.000     C          -0.143266           
         C44       1.0000    0.00530   0.02960   0.77362   Biso      1.000     C          -0.043867           
         C45       1.0000    0.42650   0.18401   0.40297   Biso      1.000     C          -0.007053           
         C46       1.0000    0.52990   0.04310   0.36815   Biso      1.000     C          0.270044  
         C47       1.0000    0.58380   0.03259   0.42346   Biso      1.000     C          -0.211498           
         C48       1.0000    0.55900   0.09750   0.46877   Biso      1.000     C          -0.011059000000000001         
         C49       1.0000    0.61350   0.08277   0.52909   Biso      1.000     C          0.63047   
         C50       1.0000    0.25870   0.46610   0.81999   Biso      1.000     C          0.610005  
         C51       1.0000    0.41840   0.17880   0.70432   Biso      1.000     C          0.559955  
         C52       1.0000    0.20620   0.19090   0.73782   Biso      1.000     C          -0.24980300000000003          
         C53       1.0000    0.31980   0.23265   0.73600   Biso      1.000     C          0.020858  
         C54       1.0000    0.33990   0.32260   0.76224   Biso      1.000     C          -0.13828  
         C55       1.0000    0.24580   0.36820   0.79248   Biso      1.000     C          -0.018151           
         C56       1.0000    0.13450   0.32439   0.79637   Biso      1.000     C          -0.244714           
         C57       1.0000    0.11330   0.23668   0.76766   Biso      1.000     C          0.268471  
         C58       1.0000    0.44910   0.11795   0.35715   Biso      1.000     C          -0.241873           
         C59       1.0000    0.75420   0.86820   0.70752   Biso      1.000     C          -0.018151           
         C60       1.0000    0.44100   0.59750   0.03123   Biso      1.000     C          -0.011059000000000001         
         C61       1.0000    0.88670   0.73668   0.73234   Biso      1.000     C          0.268473  
         C62       1.0000    0.86550   0.82439   0.70363   Biso      1.000     C          -0.244716           
         C63       1.0000    0.11350   0.41723   0.47091   Biso      1.000     C          0.630471  
         C64       1.0000    0.05900   0.40250   0.53123   Biso      1.000     C          -0.011059999999999999         
         C65       1.0000    0.02990   0.45690   0.63185   Biso      1.000     C          0.270044  
         C66       1.0000    0.94910   0.38205   0.64285   Biso      1.000     C          -0.24187199999999998          
         C67       1.0000    0.08380   0.46741   0.57654   Biso      1.000     C          -0.21149600000000002          
         C68       1.0000    0.98300   0.32500   0.54261   Biso      1.000     C          -0.143266           
         C69       1.0000    0.84240   0.23222   0.60697   Biso      1.000     C          0.6166510000000001  
         C70       1.0000    0.99470   0.52960   0.72638   Biso      1.000     C          -0.043867           
         C71       1.0000    0.03510   0.61872   0.75859   Biso      1.000     C          -0.026844           
         C72       1.0000    0.92650   0.31599   0.59703   Biso      1.000     C          -0.007051999999999999         
         H1        1.0000    0.91670   0.14770   0.24040   Biso      1.000     H          0.13885799999999998           
         H2        1.0000    0.58950   0.62400   0.18040   Biso      1.000     H          0.141061  
         H3        1.0000    0.57200   0.14600   0.18130   Biso      1.000     H          0.12418699999999999           
         H4        1.0000    0.50160   0.38040   0.29870   Biso      1.000     H          0.085776  
         H5        1.0000    0.48980   0.52830   0.25090   Biso      1.000     H          0.093476  
         H6        1.0000    0.59260   0.46700   0.21770   Biso      1.000     H          0.094735  
         H7        1.0000    0.53020   0.72210   0.01270   Biso      1.000     H          0.126664  
         H8        1.0000    0.36210   0.48080   0.06970   Biso      1.000     H          0.140334  
         H9        1.0000    0.01020   0.47170   0.75090   Biso      1.000     H          0.093475  
         H10       1.0000    0.58330   0.85230   0.74040   Biso      1.000     H          0.13885699999999998           
         H11       1.0000    0.92800   0.85400   0.68130   Biso      1.000     H          0.12418699999999999           
         H12       1.0000    0.99840   0.61960   0.79870   Biso      1.000     H          0.085775  
         H13       1.0000    0.12360   0.61650   0.76360   Biso      1.000     H          0.109449  
         H14       1.0000    0.69220   0.36900   0.28140   Biso      1.000     H          0.131353  
         H15       1.0000    0.90740   0.53300   0.71770   Biso      1.000     H          0.094735  
         H16       1.0000    0.96980   0.27790   0.51270   Biso      1.000     H          0.126665  
         H17       1.0000    0.91050   0.37600   0.68040   Biso      1.000     H          0.141061  
         H18       1.0000    0.13790   0.51920   0.56970   Biso      1.000     H          0.140334  
         H19       1.0000    0.80780   0.63100   0.78140   Biso      1.000     H          0.131353  
         H20       1.0000    0.86210   0.01920   0.93030   Biso      1.000     H          0.14033299999999999           
         H21       1.0000    0.37640   0.38350   0.26360   Biso      1.000     H          0.109449  
         H22       1.0000    0.03020   0.77790   0.98730   Biso      1.000     H          0.126665  
         H23       1.0000    0.08950   0.87600   0.81960   Biso      1.000     H          0.141062  
         H24       1.0000    0.30780   0.86900   0.21860   Biso      1.000     H          0.131352  
         H25       1.0000    0.08330   0.64770   0.25960   Biso      1.000     H          0.13885699999999998           
         H26       1.0000    0.42800   0.64600   0.31870   Biso      1.000     H          0.12418599999999999           
         H27       1.0000    0.49840   0.88040   0.20130   Biso      1.000     H          0.085775  
         H28       1.0000    0.51020   0.02830   0.24910   Biso      1.000     H          0.093475  
         H29       1.0000    0.40740   0.96700   0.28230   Biso      1.000     H          0.094736  
         H30       1.0000    0.46980   0.22210   0.48730   Biso      1.000     H          0.126665  
         H31       1.0000    0.62360   0.88350   0.23640   Biso      1.000     H          0.109448  
         H32       1.0000    0.63790   0.98080   0.43030   Biso      1.000     H          0.14033299999999999           
         H33       1.0000    0.19220   0.13100   0.71860   Biso      1.000     H          0.131354  
         H34       1.0000    0.41670   0.35230   0.75960   Biso      1.000     H          0.13885799999999998           
         H35       1.0000    0.07200   0.35400   0.81870   Biso      1.000     H          0.12418900000000001           
         H36       1.0000    0.00160   0.11960   0.70130   Biso      1.000     H          0.085775  
         H37       1.0000    0.87640   0.11650   0.73640   Biso      1.000     H          0.109448  
         H38       1.0000    0.98980   0.97170   0.74910   Biso      1.000     H          0.093476  
         H39       1.0000    0.41050   0.12400   0.31960   Biso      1.000     H          0.141062  
         H40       1.0000    0.09260   0.03300   0.78230   Biso      1.000     H          0.094735  
         O1        1.0000    0.93790   0.02570   0.82737   Biso      1.000     O          -0.195895           
         O2        1.0000    0.15065   0.66609   0.93126   Biso      1.000     O          -0.602835           
         O3        1.0000    0.22900   0.73377   0.84912   Biso      1.000     O          -0.502474           
         O4        1.0000    0.92100   0.85946   0.06973   Biso      1.000     O          -0.514232           
         O5        1.0000    0.85500   0.98707   0.19060   Biso      1.000     O          -0.48848400000000003          
         O6        1.0000    0.67270   0.00158   0.15055   Biso      1.000     O          -0.607589           
         O7        1.0000    0.99674   0.20505   0.77204   Biso      1.000     O          -0.197198           
         O8        1.0000    0.89480   0.40024   0.31886   Biso      1.000     O          -0.5038090000000001           
         O9        1.0000    0.81530   0.98610   0.03604   Biso      1.000     O          -0.589357           
         O10       1.0000    0.52267   0.21872   0.70224   Biso      1.000     O          -0.544533           
         O11       1.0000    0.57900   0.14054   0.56973   Biso      1.000     O          -0.514232           
         O12       1.0000    0.35500   0.51293   0.80940   Biso      1.000     O          -0.488486           
         O13       1.0000    0.17270   0.49842   0.84945   Biso      1.000     O          -0.607617           
         O14       1.0000    0.10520   0.90024   0.18114   Biso      1.000     O          -0.5038199999999999           
         O15       1.0000    0.97733   0.78128   0.20224   Biso      1.000     O          -0.544535           
         O16       1.0000    0.50326   0.79495   0.27204   Biso      1.000     O          -0.197197           
         O17       1.0000    0.56210   0.97430   0.32737   Biso      1.000     O          -0.195894           
         O18       1.0000    0.34935   0.33391   0.43126   Biso      1.000     O          -0.602776           
         O19       1.0000    0.27100   0.26623   0.34912   Biso      1.000     O          -0.502471           
         O20       1.0000    0.02267   0.28128   0.29776   Biso      1.000     O          -0.544535           
         O21       1.0000    0.68470   0.01390   0.53604   Biso      1.000     O          -0.589353           
         O22       1.0000    0.39480   0.09976   0.68114   Biso      1.000     O          -0.503796           
         O23       1.0000    0.49674   0.29495   0.22796   Biso      1.000     O          -0.197197           
         O24       1.0000    0.32730   0.50158   0.34945   Biso      1.000     O          -0.6075619999999999           
         O25       1.0000    0.65065   0.83391   0.06874   Biso      1.000     O          -0.602805           
         O26       1.0000    0.14500   0.48707   0.30940   Biso      1.000     O          -0.488483           
         O27       1.0000    0.18470   0.48610   0.46396   Biso      1.000     O          -0.589329           
         O28       1.0000    0.07900   0.35946   0.43027   Biso      1.000     O          -0.514231           
         O29       1.0000    0.43790   0.47430   0.17263   Biso      1.000     O          -0.195894           
         O30       1.0000    0.84935   0.16609   0.56874   Biso      1.000     O          -0.602801           
         O31       1.0000    0.06210   0.52570   0.67263   Biso      1.000     O          -0.195895           
         O32       1.0000    0.00326   0.70505   0.72796   Biso      1.000     O          -0.197197           
         O33       1.0000    0.77100   0.23377   0.65088   Biso      1.000     O          -0.502473           
         O34       1.0000    0.60520   0.59976   0.81886   Biso      1.000     O          -0.503807           
         O35       1.0000    0.64500   0.01293   0.69060   Biso      1.000     O          -0.48848400000000003          
         O36       1.0000    0.82730   0.99842   0.65055   Biso      1.000     O          -0.607585           
         O37       1.0000    0.31530   0.51390   0.96396   Biso      1.000     O          -0.589385           
         O38       1.0000    0.42100   0.64054   0.93027   Biso      1.000     O          -0.514234           
         O39       1.0000    0.72900   0.76623   0.15088   Biso      1.000     O          -0.502471           
         O40       1.0000    0.47733   0.71872   0.79776   Biso      1.000     O          -0.544534           
         Zn1       1.0000    0.36586   0.48126   0.43861   Biso      1.000     Zn          0.9877959999999999  
         Zn2       1.0000    0.13211   0.35917   0.34701   Biso      1.000     Zn          0.9325450000000001  
         Zn3       1.0000    0.13414   0.51874   0.93861   Biso      1.000     Zn          0.9879690000000001  
         Zn4       1.0000    0.36789   0.64083   0.84701   Biso      1.000     Zn          0.9325399999999999  
         Zn5       1.0000    0.63414   0.98126   0.06139   Biso      1.000     Zn          0.987884  
         Zn6       1.0000    0.86789   0.85917   0.15299   Biso      1.000     Zn          0.932541  
         Zn7       1.0000    0.86586   0.01874   0.56139   Biso      1.000     Zn          0.98787   
         Zn8       1.0000    0.63211   0.14083   0.65299   Biso      1.000     Zn          0.932542 