
##########################################################################
#               Crystallographic Information Format file
#               Produced by PyCifRW module
#
#  This is a CIF file.  CIF has been adopted by the International
#  Union of Crystallography as the standard for data archiving and
#  transmission.
#
#  For information on this file format, follow the CIF links at
#  http://www.iucr.org
##########################################################################

data_image0

_cell_length_a                          10.454
_cell_length_b                          10.454
_cell_length_c                          33.383
_cell_angle_alpha                       90
_cell_angle_beta                        90
_cell_angle_gamma                       120
_symmetry_space_group_name_H-M          'P 1'
_symmetry_int_tables_number             1
loop_
  _symmetry_equiv_pos_as_xyz
         'x, y, z' 
loop_
  _atom_site_label
  _atom_site_occupancy
  _atom_site_fract_x
  _atom_site_fract_y
  _atom_site_fract_z
  _atom_site_thermal_displace_type
  _atom_site_B_iso_or_equiv
  _atom_site_type_symbol
  _atom_site_charge
         C1        1.0000    0.27043   0.38597   0.62009   Biso      1.000     C          0.550599  
         C2        1.0000    0.55113   0.94737   0.71325   Biso      1.000     C          0.549245  
         C3        1.0000    0.73673   0.01777   0.55590   Biso      1.000     C          -0.227223           
         C4        1.0000    0.71930   0.93710   0.04658   Biso      1.000     C          0.55043   
         C5        1.0000    0.11553   0.72957   0.62009   Biso      1.000     C          0.550685  
         C6        1.0000    0.73613   0.02657   0.60148   Biso      1.000     C          0.063214  
         C7        1.0000    0.59720   0.95710   0.06519   Biso      1.000     C          0.062042  
         C8        1.0000    0.61403   0.88447   0.62009   Biso      1.000     C          0.550474  
         C9        1.0000    0.05230   0.64890   0.11077   Biso      1.000     C          -0.227568           
         C10       1.0000    0.97343   0.70957   0.60148   Biso      1.000     C          0.063221  
         C11       1.0000    0.59660   0.94770   0.11077   Biso      1.000     C          -0.22756  
         C12       1.0000    0.98223   0.71897   0.55590   Biso      1.000     C          -0.227379           
         C13       1.0000    0.69323   0.06947   0.73186   Biso      1.000     C          0.063602  
         C14       1.0000    0.04290   0.64010   0.06519   Biso      1.000     C          0.062037  
         C15       1.0000    0.64890   0.05230   0.88923   Biso      1.000     C          -0.227375           
         C16       1.0000    0.06290   0.78220   0.04658   Biso      1.000     C          0.55043   
         C17       1.0000    0.37623   0.30677   0.73186   Biso      1.000     C          0.063486  
         C18       1.0000    0.64010   0.04290   0.93481   Biso      1.000     C          0.061985  
         C19       1.0000    0.71897   0.98223   0.44410   Biso      1.000     C          -0.227378           
         C20       1.0000    0.78220   0.06290   0.95342   Biso      1.000     C          0.550423  
         C21       1.0000    0.44887   0.39623   0.28675   Biso      1.000     C          0.549611  
         C22       1.0000    0.38563   0.31557   0.77744   Biso      1.000     C          -0.229915           
         C23       1.0000    0.30677   0.37623   0.26814   Biso      1.000     C          0.063509  
         C24       1.0000    0.70957   0.97343   0.39852   Biso      1.000     C          0.0632    
         C25       1.0000    0.72957   0.11553   0.37991   Biso      1.000     C          0.550724  
         C26       1.0000    0.39623   0.44887   0.71325   Biso      1.000     C          0.549578  
         C27       1.0000    0.29043   0.26387   0.60148   Biso      1.000     C          0.063161  
         C28       1.0000    0.26327   0.28103   0.44410   Biso      1.000     C          -0.227343           
         C29       1.0000    0.68443   0.07007   0.77744   Biso      1.000     C          -0.230055           
         C30       1.0000    0.28103   0.26327   0.55590   Biso      1.000     C          -0.227325           
         C31       1.0000    0.35110   0.40340   0.11077   Biso      1.000     C          -0.227558           
         C32       1.0000    0.35990   0.40280   0.06519   Biso      1.000     C          0.062037  
         C33       1.0000    0.21780   0.28070   0.04658   Biso      1.000     C          0.550433  
         C34       1.0000    0.40340   0.35110   0.88923   Biso      1.000     C          -0.227362           
         C35       1.0000    0.60377   0.05263   0.28675   Biso      1.000     C          0.549312  
         C36       1.0000    0.62377   0.93053   0.26814   Biso      1.000     C          0.063702  
         C37       1.0000    0.40280   0.35990   0.93481   Biso      1.000     C          0.061988  
         C38       1.0000    0.05263   0.60377   0.71325   Biso      1.000     C          0.54928   
         C39       1.0000    0.28070   0.21780   0.95342   Biso      1.000     C          0.550398  
         C40       1.0000    0.94770   0.59660   0.88923   Biso      1.000     C          -0.227371           
         C41       1.0000    0.01777   0.73673   0.44410   Biso      1.000     C          -0.227222           
         C42       1.0000    0.61437   0.92993   0.22256   Biso      1.000     C          -0.230028           
         C43       1.0000    0.02657   0.73613   0.39852   Biso      1.000     C          0.063203  
         C44       1.0000    0.92993   0.61437   0.77744   Biso      1.000     C          -0.22996  
         C45       1.0000    0.88447   0.61403   0.37991   Biso      1.000     C          0.550524  
         C46       1.0000    0.07007   0.68443   0.22256   Biso      1.000     C          -0.230106           
         C47       1.0000    0.93710   0.71930   0.95342   Biso      1.000     C          0.550387  
         C48       1.0000    0.38597   0.27043   0.37991   Biso      1.000     C          0.550631  
         C49       1.0000    0.06947   0.69323   0.26814   Biso      1.000     C          0.063641  
         C50       1.0000    0.95710   0.59720   0.93481   Biso      1.000     C          0.062002  
         C51       1.0000    0.94737   0.55113   0.28675   Biso      1.000     C          0.549271  
         C52       1.0000    0.26387   0.29043   0.39852   Biso      1.000     C          0.063144  
         C53       1.0000    0.93053   0.62377   0.73186   Biso      1.000     C          0.063669  
         C54       1.0000    0.31557   0.38563   0.22256   Biso      1.000     C          -0.229976           
         Co1       1.0000    0.00000   0.00000   0.50000   Biso      1.000     Co          0.051343  
         Co2       1.0000    0.33333   0.66667   0.16667   Biso      1.000     Co          0.049555  
         Co3       1.0000    0.66667   0.33333   0.91878   Biso      1.000     Co          0.402685  
         Co4       1.0000    0.66667   0.33333   0.83333   Biso      1.000     Co          0.049482  
         Co5       1.0000    0.66667   0.33333   0.74789   Biso      1.000     Co          0.404685  
         Co6       1.0000    0.00000   0.00000   0.41456   Biso      1.000     Co          0.402878  
         Co7       1.0000    0.33333   0.66667   0.08122   Biso      1.000     Co          0.402459  
         Co8       1.0000    0.00000   0.00000   0.58544   Biso      1.000     Co          0.40303   
         Co9       1.0000    0.33333   0.66667   0.25211   Biso      1.000     Co          0.404609  
         H1        1.0000    0.79473   0.48947   0.69027   Biso      1.000     H          0.307612  
         H2        1.0000    0.69473   0.20527   0.69027   Biso      1.000     H          0.307609  
         H3        1.0000    0.72813   0.56307   0.71327   Biso      1.000     H          0.317447  
         H4        1.0000    0.10777   0.71603   0.39133   Biso      1.000     H          0.090431  
         H5        1.0000    0.86623   0.64997   0.78907   Biso      1.000     H          0.130235  
         H6        1.0000    0.97777   0.63543   0.45473   Biso      1.000     H          0.154182  
         H7        1.0000    0.11707   0.80043   0.45573   Biso      1.000     H          0.129334  
         H8        1.0000    0.03123   0.67567   0.78807   Biso      1.000     H          0.154791  
         H9        1.0000    0.65767   0.02223   0.45473   Biso      1.000     H          0.154259  
         H10       1.0000    0.16827   0.93853   0.37993   Biso      1.000     H          0.316082  
         H11       1.0000    0.83493   0.27187   0.71327   Biso      1.000     H          0.317535  
         H12       1.0000    0.02807   0.87193   0.35693   Biso      1.000     H          0.306668  
         H13       1.0000    0.44110   0.38270   0.05800   Biso      1.000     H          0.091144  
         H14       1.0000    0.31110   0.30210   0.12140   Biso      1.000     H          0.154362  
         H15       1.0000    0.45040   0.46710   0.12240   Biso      1.000     H          0.129439  
         H16       1.0000    0.36140   0.53860   0.02360   Biso      1.000     H          0.306138  
         H17       1.0000    0.95063   0.72507   0.72467   Biso      1.000     H          0.091316  
         H18       1.0000    0.51053   0.30527   0.69027   Biso      1.000     H          0.3076    
         H19       1.0000    0.28397   0.39173   0.39133   Biso      1.000     H          0.090476  
         H20       1.0000    0.78373   0.13377   0.78907   Biso      1.000     H          0.130354  
         H21       1.0000    0.43693   0.16507   0.71327   Biso      1.000     H          0.317618  
         H22       1.0000    0.68337   0.88293   0.45573   Biso      1.000     H          0.129333  
         H23       1.0000    0.35003   0.21627   0.78907   Biso      1.000     H          0.130314  
         H24       1.0000    0.32433   0.35557   0.78807   Biso      1.000     H          0.154739  
         H25       1.0000    0.77027   0.83173   0.37993   Biso      1.000     H          0.316123  
         H26       1.0000    0.84387   0.97193   0.35693   Biso      1.000     H          0.306675  
         H27       1.0000    0.27493   0.22557   0.72467   Biso      1.000     H          0.091405  
         H28       1.0000    0.94160   0.55890   0.05800   Biso      1.000     H          0.091148  
         H29       1.0000    0.46140   0.82280   0.02360   Biso      1.000     H          0.306143  
         H30       1.0000    0.39480   0.89640   0.04660   Biso      1.000     H          0.316652  
         H31       1.0000    0.36457   0.34233   0.45473   Biso      1.000     H          0.154184  
         H32       1.0000    0.99100   0.68890   0.12140   Biso      1.000     H          0.154364  
         H33       1.0000    0.53290   0.98330   0.12240   Biso      1.000     H          0.129441  
         H34       1.0000    0.69790   0.00900   0.12140   Biso      1.000     H          0.154364  
         H35       1.0000    0.61730   0.05840   0.05800   Biso      1.000     H          0.091145  
         H36       1.0000    0.10360   0.49840   0.04660   Biso      1.000     H          0.316656  
         H37       1.0000    0.17720   0.63860   0.02360   Biso      1.000     H          0.306143  
         H38       1.0000    0.12807   0.15613   0.35693   Biso      1.000     H          0.306597  
         H39       1.0000    0.77443   0.04937   0.72467   Biso      1.000     H          0.091385  
         H40       1.0000    0.06147   0.22973   0.37993   Biso      1.000     H          0.316027  
         H41       1.0000    0.64443   0.96877   0.78807   Biso      1.000     H          0.154807  
         H42       1.0000    0.19957   0.31663   0.45573   Biso      1.000     H          0.129411  
         H43       1.0000    0.01670   0.54960   0.12240   Biso      1.000     H          0.129443  
         H44       1.0000    0.60827   0.89223   0.39133   Biso      1.000     H          0.090445  
         H45       1.0000    0.50160   0.60520   0.04660   Biso      1.000     H          0.316645  
         H46       1.0000    0.30527   0.51053   0.30973   Biso      1.000     H          0.307639  
         H47       1.0000    0.60520   0.50160   0.95340   Biso      1.000     H          0.316557  
         H48       1.0000    0.46710   0.45040   0.87760   Biso      1.000     H          0.129397  
         H49       1.0000    0.89223   0.60827   0.60867   Biso      1.000     H          0.090451  
         H50       1.0000    0.02223   0.65767   0.54527   Biso      1.000     H          0.15421   
         H51       1.0000    0.88293   0.68337   0.54427   Biso      1.000     H          0.129282  
         H52       1.0000    0.83173   0.77027   0.62007   Biso      1.000     H          0.316144  
         H53       1.0000    0.97193   0.84387   0.64307   Biso      1.000     H          0.306729  
         H54       1.0000    0.30210   0.31110   0.87860   Biso      1.000     H          0.154324  
         H55       1.0000    0.27187   0.83493   0.28673   Biso      1.000     H          0.317568  
         H56       1.0000    0.22557   0.27493   0.27533   Biso      1.000     H          0.091429  
         H57       1.0000    0.35557   0.32433   0.21193   Biso      1.000     H          0.154752  
         H58       1.0000    0.21627   0.35003   0.21093   Biso      1.000     H          0.130343  
         H59       1.0000    0.16507   0.43693   0.28673   Biso      1.000     H          0.317659  
         H60       1.0000    0.82280   0.46140   0.97640   Biso      1.000     H          0.306013  
         H61       1.0000    0.39173   0.28397   0.60867   Biso      1.000     H          0.090486  
         H62       1.0000    0.68890   0.99100   0.87860   Biso      1.000     H          0.154334  
         H63       1.0000    0.54960   0.01670   0.87760   Biso      1.000     H          0.129409  
         H64       1.0000    0.49840   0.10360   0.95340   Biso      1.000     H          0.316569  
         H65       1.0000    0.38270   0.44110   0.94200   Biso      1.000     H          0.091043  
         H66       1.0000    0.63860   0.17720   0.97640   Biso      1.000     H          0.306014  
         H67       1.0000    0.71603   0.10777   0.60867   Biso      1.000     H          0.090463  
         H68       1.0000    0.63543   0.97777   0.54527   Biso      1.000     H          0.154147  
         H69       1.0000    0.80043   0.11707   0.54427   Biso      1.000     H          0.129306  
         H70       1.0000    0.93853   0.16827   0.62007   Biso      1.000     H          0.316119  
         H71       1.0000    0.87193   0.02807   0.64307   Biso      1.000     H          0.30672   
         H72       1.0000    0.04937   0.77443   0.27533   Biso      1.000     H          0.091403  
         H73       1.0000    0.96877   0.64443   0.21193   Biso      1.000     H          0.154813  
         H74       1.0000    0.13377   0.78373   0.21093   Biso      1.000     H          0.130377  
         H75       1.0000    0.55890   0.94160   0.94200   Biso      1.000     H          0.091058  
         H76       1.0000    0.89640   0.39480   0.95340   Biso      1.000     H          0.316557  
         H77       1.0000    0.20527   0.69473   0.30973   Biso      1.000     H          0.307648  
         H78       1.0000    0.00900   0.69790   0.87860   Biso      1.000     H          0.154324  
         H79       1.0000    0.05840   0.61730   0.94200   Biso      1.000     H          0.091043  
         H80       1.0000    0.34233   0.36457   0.54527   Biso      1.000     H          0.15414   
         H81       1.0000    0.31663   0.19957   0.54427   Biso      1.000     H          0.129362  
         H82       1.0000    0.53860   0.36140   0.97640   Biso      1.000     H          0.306003  
         H83       1.0000    0.22973   0.06147   0.62007   Biso      1.000     H          0.316058  
         H84       1.0000    0.15613   0.12807   0.64307   Biso      1.000     H          0.306651  
         H85       1.0000    0.98330   0.53290   0.87760   Biso      1.000     H          0.129395  
         H86       1.0000    0.72507   0.95063   0.27533   Biso      1.000     H          0.091344  
         H87       1.0000    0.67567   0.03123   0.21193   Biso      1.000     H          0.154805  
         H88       1.0000    0.64997   0.86623   0.21093   Biso      1.000     H          0.130266  
         H89       1.0000    0.56307   0.72813   0.28673   Biso      1.000     H          0.317484  
         H90       1.0000    0.48947   0.79473   0.30973   Biso      1.000     H          0.307648  
         La1       1.0000    0.66667   0.33333   0.33333   Biso      1.000     La          1.898982  
         La2       1.0000    0.33333   0.66667   0.66667   Biso      1.000     La          1.899022  
         La3       1.0000    0.00000   0.00000   0.00000   Biso      1.000     La          1.898754  
         N1        1.0000    0.51637   0.78253   0.28442   Biso      1.000     N          -0.560478           
         N2        1.0000    0.78253   0.51637   0.71558   Biso      1.000     N          -0.560417           
         N3        1.0000    0.21747   0.73383   0.28442   Biso      1.000     N          -0.560571           
         N4        1.0000    0.40050   0.55080   0.04891   Biso      1.000     N          -0.55783  
         N5        1.0000    0.88413   0.06717   0.61776   Biso      1.000     N          -0.558392           
         N6        1.0000    0.84970   0.44920   0.95109   Biso      1.000     N          -0.557781           
         N7        1.0000    0.11587   0.18303   0.38224   Biso      1.000     N          -0.558189           
         N8        1.0000    0.18303   0.11587   0.61776   Biso      1.000     N          -0.558218           
         N9        1.0000    0.59950   0.15030   0.95109   Biso      1.000     N          -0.557764           
         N10       1.0000    0.93283   0.81697   0.61776   Biso      1.000     N          -0.558432           
         N11       1.0000    0.15030   0.59950   0.04891   Biso      1.000     N          -0.557846           
         N12       1.0000    0.26617   0.48363   0.28442   Biso      1.000     N          -0.560687           
         N13       1.0000    0.48363   0.26617   0.71558   Biso      1.000     N          -0.560616           
         N14       1.0000    0.44920   0.84970   0.04891   Biso      1.000     N          -0.557857           
         N15       1.0000    0.81697   0.93283   0.38224   Biso      1.000     N          -0.558406           
         N16       1.0000    0.06717   0.88413   0.38224   Biso      1.000     N          -0.558395           
         N17       1.0000    0.73383   0.21747   0.71558   Biso      1.000     N          -0.560504           
         N18       1.0000    0.55080   0.40050   0.95109   Biso      1.000     N          -0.557758           
         O1        1.0000    0.51635   0.35787   0.39180   Biso      1.000     O          -0.598176           
         O2        1.0000    0.35643   0.17779   0.35297   Biso      1.000     O          -0.594394           
         O3        1.0000    0.69121   0.18301   0.27486   Biso      1.000     O          -0.597804           
         O4        1.0000    0.84446   0.68976   0.98036   Biso      1.000     O          -0.593645           
         O5        1.0000    0.15847   0.64213   0.60820   Biso      1.000     O          -0.598467           
         O6        1.0000    0.17863   0.82221   0.64703   Biso      1.000     O          -0.5946   
         O7        1.0000    0.64357   0.82137   0.64703   Biso      1.000     O          -0.59428  
         O8        1.0000    0.97691   0.48803   0.31369   Biso      1.000     O          -0.592866           
         O9        1.0000    0.51113   0.02309   0.31369   Biso      1.000     O          -0.59286  
         O10       1.0000    0.15470   0.31024   0.01964   Biso      1.000     O          -0.593408           
         O11       1.0000    0.82221   0.17863   0.35297   Biso      1.000     O          -0.594415           
         O12       1.0000    0.18301   0.69121   0.72514   Biso      1.000     O          -0.597819           
         O13       1.0000    0.02309   0.51113   0.68631   Biso      1.000     O          -0.592889           
         O14       1.0000    0.64213   0.15847   0.39180   Biso      1.000     O          -0.598203           
         O15       1.0000    0.17486   0.15032   0.05847   Biso      1.000     O          -0.596948           
         O16       1.0000    0.48365   0.84153   0.60820   Biso      1.000     O          -0.59813  
         O17       1.0000    0.81699   0.50819   0.27486   Biso      1.000     O          -0.59776  
         O18       1.0000    0.48887   0.51197   0.68631   Biso      1.000     O          -0.593012           
         O19       1.0000    0.30879   0.49181   0.72514   Biso      1.000     O          -0.597937           
         O20       1.0000    0.02454   0.84968   0.94153   Biso      1.000     O          -0.59701  
         O21       1.0000    0.51197   0.48887   0.31369   Biso      1.000     O          -0.592956           
         O22       1.0000    0.49181   0.30879   0.27486   Biso      1.000     O          -0.597908           
         O23       1.0000    0.82137   0.64357   0.35297   Biso      1.000     O          -0.594315           
         O24       1.0000    0.84153   0.48365   0.39180   Biso      1.000     O          -0.598137           
         O25       1.0000    0.31024   0.15470   0.98036   Biso      1.000     O          -0.593638           
         O26       1.0000    0.15032   0.17486   0.94153   Biso      1.000     O          -0.597004           
         O27       1.0000    0.97546   0.82514   0.05847   Biso      1.000     O          -0.59691  
         O28       1.0000    0.35787   0.51635   0.60820   Biso      1.000     O          -0.59842  
         O29       1.0000    0.68976   0.84446   0.01964   Biso      1.000     O          -0.593385           
         O30       1.0000    0.48803   0.97691   0.68631   Biso      1.000     O          -0.592874           
         O31       1.0000    0.17779   0.35643   0.64703   Biso      1.000     O          -0.594537           
         O32       1.0000    0.50819   0.81699   0.72514   Biso      1.000     O          -0.597729           
         O33       1.0000    0.84530   0.15554   0.98036   Biso      1.000     O          -0.593551           
         O34       1.0000    0.82514   0.97546   0.94153   Biso      1.000     O          -0.596899           
         O35       1.0000    0.84968   0.02454   0.05847   Biso      1.000     O          -0.596934           
         O36       1.0000    0.15554   0.84530   0.01964   Biso      1.000     O          -0.593369           
         S1        1.0000    0.14162   0.56224   0.20991   Biso      1.000     S          -0.092091           
         S2        1.0000    0.22891   0.47495   0.12343   Biso      1.000     S          -0.092139           
         S3        1.0000    0.80828   0.89558   0.54324   Biso      1.000     S          -0.093447           
         S4        1.0000    0.19172   0.08729   0.45676   Biso      1.000     S          -0.09347  
         S5        1.0000    0.77109   0.24604   0.87658   Biso      1.000     S          -0.092232           
         S6        1.0000    0.52505   0.75396   0.12343   Biso      1.000     S          -0.092124           
         S7        1.0000    0.43776   0.57937   0.20991   Biso      1.000     S          -0.092058           
         S8        1.0000    0.57937   0.43776   0.79009   Biso      1.000     S          -0.092134           
         S9        1.0000    0.10442   0.91271   0.54324   Biso      1.000     S          -0.093387           
         S10       1.0000    0.91271   0.10442   0.45676   Biso      1.000     S          -0.093465           
         S11       1.0000    0.75396   0.52505   0.87658   Biso      1.000     S          -0.092257           
         S12       1.0000    0.24604   0.77109   0.12343   Biso      1.000     S          -0.092083           
         S13       1.0000    0.42063   0.85838   0.20991   Biso      1.000     S          -0.092055           
         S14       1.0000    0.56224   0.14162   0.79009   Biso      1.000     S          -0.092173           
         S15       1.0000    0.89558   0.80828   0.45676   Biso      1.000     S          -0.093505           
         S16       1.0000    0.08729   0.19172   0.54324   Biso      1.000     S          -0.09341  
         S17       1.0000    0.85838   0.42063   0.79009   Biso      1.000     S          -0.09213  
         S18       1.0000    0.47495   0.22891   0.87658   Biso      1.000     S          -0.09228 