
##########################################################################
#               Crystallographic Information Format file
#               Produced by PyCifRW module
#
#  This is a CIF file.  CIF has been adopted by the International
#  Union of Crystallography as the standard for data archiving and
#  transmission.
#
#  For information on this file format, follow the CIF links at
#  http://www.iucr.org
##########################################################################

data_image0

_cell_length_a                          8.344
_cell_length_b                          12.3194
_cell_length_c                          17.558
_cell_angle_alpha                       98.0583
_cell_angle_beta                        90
_cell_angle_gamma                       109.795
_symmetry_space_group_name_H-M          'P 1'
_symmetry_int_tables_number             1
loop_
  _symmetry_equiv_pos_as_xyz
         'x, y, z' 
loop_
  _atom_site_label
  _atom_site_occupancy
  _atom_site_fract_x
  _atom_site_fract_y
  _atom_site_fract_z
  _atom_site_thermal_displace_type
  _atom_site_B_iso_or_equiv
  _atom_site_type_symbol
  _atom_site_charge
         C1        1.0000    0.98190   0.67120   0.68530   Biso      1.000     C          -0.141129           
         C2        1.0000    0.55610   0.71020   0.07650   Biso      1.000     C          -0.092008           
         C3        1.0000    0.44220   0.60180   0.06580   Biso      1.000     C          -0.12058699999999999          
         C4        1.0000    0.45170   0.52040   0.11350   Biso      1.000     C          0.069627  
         C5        1.0000    0.57950   0.55700   0.17570   Biso      1.000     C          0.074785  
         C6        1.0000    0.59080   0.47560   0.22190   Biso      1.000     C          -0.12301199999999998          
         C7        1.0000    0.48300   0.36220   0.20790   Biso      1.000     C          -0.10668499999999999          
         C8        1.0000    0.35770   0.32640   0.14750   Biso      1.000     C          -0.023173           
         C9        1.0000    0.34110   0.40320   0.10250   Biso      1.000     C          -0.14288499999999998          
         C10       1.0000    0.67570   0.84300   0.57780   Biso      1.000     C          0.584627  
         C11       1.0000    0.52540   0.51100   0.54000   Biso      1.000     C          0.073956  
         C12       1.0000    0.48680   0.58400   0.42090   Biso      1.000     C          -0.127639           
         C13       1.0000    0.68270   0.74760   0.13750   Biso      1.000     C          -0.011863           
         C14       1.0000    0.54740   0.69440   0.45710   Biso      1.000     C          -0.103549           
         C15       1.0000    0.58610   0.62660   0.57670   Biso      1.000     C          -0.16236199999999998          
         C16       1.0000    0.04660   0.86520   0.64370   Biso      1.000     C          0.5893470000000001  
         C17       1.0000    0.95420   0.20080   0.63120   Biso      1.000     C          0.608705  
         C18       1.0000    0.06490   0.74760   0.63750   Biso      1.000     C          -0.011493999999999999         
         C19       1.0000    0.15410   0.71020   0.57650   Biso      1.000     C          -0.08774900000000001          
         C20       1.0000    0.15960   0.60180   0.56580   Biso      1.000     C          -0.118461           
         C21       1.0000    0.06870   0.52040   0.61350   Biso      1.000     C          0.06970900000000001           
         C22       1.0000    0.97750   0.55700   0.67570   Biso      1.000     C          0.074054  
         C23       1.0000    0.88480   0.47560   0.72190   Biso      1.000     C          -0.12127  
         C24       1.0000    0.96870   0.32640   0.64750   Biso      1.000     C          -0.020707           
         C25       1.0000    0.06210   0.40320   0.60250   Biso      1.000     C          -0.143597           
         C26       1.0000    0.59870   0.71660   0.53770   Biso      1.000     C          0.0034439999999999996         
         C27       1.0000    0.83270   0.15700   0.92220   Biso      1.000     C          0.583415  
         C28       1.0000    0.68930   0.67120   0.18530   Biso      1.000     C          -0.144957           
         C29       1.0000    0.81860   0.86520   0.14370   Biso      1.000     C          0.590838  
         C30       1.0000    0.32430   0.15700   0.42220   Biso      1.000     C          0.584106  
         C31       1.0000    0.47460   0.48900   0.46000   Biso      1.000     C          0.074379  
         C32       1.0000    0.51320   0.41600   0.57910   Biso      1.000     C          -0.127352           
         C33       1.0000    0.45260   0.30560   0.54290   Biso      1.000     C          -0.103501           
         C34       1.0000    0.40130   0.28340   0.46230   Biso      1.000     C          0.0018239999999999999         
         C35       1.0000    0.41390   0.37340   0.42330   Biso      1.000     C          -0.163024           
         C36       1.0000    0.95340   0.13480   0.35630   Biso      1.000     C          0.589867  
         C37       1.0000    0.04580   0.79920   0.36880   Biso      1.000     C          0.608582  
         C38       1.0000    0.01810   0.32880   0.31470   Biso      1.000     C          -0.142029           
         C39       1.0000    0.93510   0.25240   0.36250   Biso      1.000     C          -0.011098           
         C40       1.0000    0.84590   0.28980   0.42350   Biso      1.000     C          -0.088754           
         C41       1.0000    0.24660   0.20080   0.13120   Biso      1.000     C          0.610222  
         C42       1.0000    0.84040   0.39820   0.43420   Biso      1.000     C          -0.11871199999999998          
         C43       1.0000    0.02250   0.44300   0.32430   Biso      1.000     C          0.074334  
         C44       1.0000    0.11520   0.52440   0.27810   Biso      1.000     C          -0.122075           
         C45       1.0000    0.12080   0.63780   0.29210   Biso      1.000     C          -0.104709           
         C46       1.0000    0.03130   0.67360   0.35250   Biso      1.000     C          -0.020663           
         C47       1.0000    0.93790   0.59680   0.39750   Biso      1.000     C          -0.144156           
         C48       1.0000    0.16730   0.84300   0.07780   Biso      1.000     C          0.583073  
         C49       1.0000    0.98560   0.51100   0.04000   Biso      1.000     C          0.075924  
         C50       1.0000    0.09720   0.58400   0.92090   Biso      1.000     C          -0.12658  
         C51       1.0000    0.14700   0.69440   0.95710   Biso      1.000     C          -0.10334600000000001          
         C52       1.0000    0.11790   0.71660   0.03770   Biso      1.000     C          0.005253  
         C53       1.0000    0.04050   0.62660   0.07670   Biso      1.000     C          -0.160331           
         C54       1.0000    0.93130   0.47960   0.38650   Biso      1.000     C          0.069813  
         C55       1.0000    0.01440   0.48900   0.96000   Biso      1.000     C          0.07587999999999999           
         C56       1.0000    0.87920   0.36220   0.70790   Biso      1.000     C          -0.104153           
         C57       1.0000    0.85300   0.30560   0.04290   Biso      1.000     C          -0.10344400000000001          
         C58       1.0000    0.90280   0.41600   0.07910   Biso      1.000     C          -0.127409           
         C59       1.0000    0.64230   0.67360   0.85250   Biso      1.000     C          -0.025965           
         C60       1.0000    0.51700   0.63780   0.79210   Biso      1.000     C          -0.106589           
         C61       1.0000    0.40920   0.52440   0.77810   Biso      1.000     C          -0.12546600000000002          
         C62       1.0000    0.42050   0.44300   0.82430   Biso      1.000     C          0.075179  
         C63       1.0000    0.54830   0.47960   0.88650   Biso      1.000     C          0.069498  
         C64       1.0000    0.55780   0.39820   0.93420   Biso      1.000     C          -0.12390899999999999          
         C65       1.0000    0.65890   0.59680   0.89750   Biso      1.000     C          -0.145534           
         C66       1.0000    0.31730   0.25240   0.86250   Biso      1.000     C          -0.012527           
         C67       1.0000    0.31070   0.32880   0.81470   Biso      1.000     C          -0.147587           
         C68       1.0000    0.75340   0.79920   0.86880   Biso      1.000     C          0.610648  
         C69       1.0000    0.18140   0.13480   0.85630   Biso      1.000     C          0.593666  
         C70       1.0000    0.95950   0.37340   0.92330   Biso      1.000     C          -0.159053           
         C71       1.0000    0.88210   0.28340   0.96230   Biso      1.000     C          0.005465  
         C72       1.0000    0.44390   0.28980   0.92350   Biso      1.000     C          -0.090167           
         H1        1.0000    0.55610   0.75600   0.43030   Biso      1.000     H          0.13478099999999998           
         H2        1.0000    0.61860   0.64220   0.62880   Biso      1.000     H          0.122476  
         H3        1.0000    0.92600   0.69680   0.72600   Biso      1.000     H          0.124423  
         H4        1.0000    0.20990   0.76180   0.54330   Biso      1.000     H          0.12406400000000001           
         H5        1.0000    0.22330   0.58000   0.52700   Biso      1.000     H          0.110943  
         H6        1.0000    0.82630   0.49880   0.76240   Biso      1.000     H          0.114728  
         H7        1.0000    0.81590   0.30860   0.73860   Biso      1.000     H          0.12463699999999998           
         H8        1.0000    0.12300   0.37820   0.56370   Biso      1.000     H          0.12394000000000001           
         H9        1.0000    0.97640   0.35780   0.87120   Biso      1.000     H          0.12263199999999999           
         H10       1.0000    0.80010   0.24400   0.06970   Biso      1.000     H          0.134446  
         H11       1.0000    0.22920   0.30320   0.77400   Biso      1.000     H          0.12488599999999998           
         H12       1.0000    0.44810   0.23820   0.95670   Biso      1.000     H          0.12384200000000001           
         H13       1.0000    0.64330   0.42000   0.97300   Biso      1.000     H          0.110483  
         H14       1.0000    0.32750   0.50120   0.73760   Biso      1.000     H          0.11358800000000001           
         H15       1.0000    0.74480   0.62180   0.93630   Biso      1.000     H          0.121905  
         H16       1.0000    0.50730   0.69140   0.76140   Biso      1.000     H          0.12444100000000001           
         H17       1.0000    0.88250   0.43020   0.13100   Biso      1.000     H          0.11309100000000001           
         H18       1.0000    0.45230   0.56980   0.36900   Biso      1.000     H          0.11180999999999999           
         H19       1.0000    0.67250   0.49880   0.26240   Biso      1.000     H          0.11392000000000001           
         H20       1.0000    0.49270   0.30860   0.23860   Biso      1.000     H          0.12487899999999999           
         H21       1.0000    0.54770   0.43020   0.63100   Biso      1.000     H          0.112344  
         H22       1.0000    0.25520   0.37820   0.06370   Biso      1.000     H          0.12295999999999999           
         H23       1.0000    0.38140   0.35780   0.37120   Biso      1.000     H          0.122314  
         H24       1.0000    0.07400   0.30320   0.27400   Biso      1.000     H          0.124154  
         H25       1.0000    0.79010   0.23820   0.45670   Biso      1.000     H          0.12403299999999999           
         H26       1.0000    0.77670   0.42000   0.47300   Biso      1.000     H          0.110981  
         H27       1.0000    0.17370   0.50120   0.23760   Biso      1.000     H          0.11433499999999999           
         H28       1.0000    0.44390   0.24400   0.56970   Biso      1.000     H          0.13476   
         H29       1.0000    0.87700   0.62180   0.43630   Biso      1.000     H          0.124028  
         H30       1.0000    0.11750   0.56980   0.86900   Biso      1.000     H          0.11341099999999998           
         H31       1.0000    0.19990   0.75600   0.93030   Biso      1.000     H          0.13476   
         H32       1.0000    0.02360   0.64220   0.12880   Biso      1.000     H          0.122325  
         H33       1.0000    0.77080   0.69680   0.22600   Biso      1.000     H          0.12545   
         H34       1.0000    0.55190   0.76180   0.04330   Biso      1.000     H          0.12451   
         H35       1.0000    0.35670   0.58000   0.02700   Biso      1.000     H          0.111321  
         H36       1.0000    0.18410   0.69140   0.26140   Biso      1.000     H          0.12450699999999999           
         O1        1.0000    0.73930   0.92000   0.53430   Biso      1.000     O          -0.550897           
         O2        1.0000    0.25890   0.13360   0.17580   Biso      1.000     O          -0.574317           
         O3        1.0000    0.14180   0.16820   0.07400   Biso      1.000     O          -0.553886           
         O4        1.0000    0.91460   0.89940   0.20280   Biso      1.000     O          -0.517204           
         O5        1.0000    0.83050   0.92460   0.08970   Biso      1.000     O          -0.530724           
         O6        1.0000    0.01520   0.10060   0.29720   Biso      1.000     O          -0.5125460000000001           
         O7        1.0000    0.18070   0.92000   0.03430   Biso      1.000     O          -0.535407           
         O8        1.0000    0.90590   0.07540   0.41030   Biso      1.000     O          -0.531671           
         O9        1.0000    0.97360   0.83180   0.42600   Biso      1.000     O          -0.5563779999999999           
         O10       1.0000    0.66980   0.86040   0.64850   Biso      1.000     O          -0.548407           
         O11       1.0000    0.12530   0.86640   0.32420   Biso      1.000     O          -0.574785           
         O12       1.0000    0.19060   0.86040   0.14850   Biso      1.000     O          -0.5457029999999999           
         O13       1.0000    0.09410   0.92460   0.58970   Biso      1.000     O          -0.53354  
         O14       1.0000    0.26070   0.08000   0.46570   Biso      1.000     O          -0.543204           
         O15       1.0000    0.02640   0.16820   0.57400   Biso      1.000     O          -0.556592           
         O16       1.0000    0.87470   0.13360   0.67580   Biso      1.000     O          -0.571144           
         O17       1.0000    0.81930   0.08000   0.96570   Biso      1.000     O          -0.534611           
         O18       1.0000    0.80940   0.13960   0.85150   Biso      1.000     O          -0.540791           
         O19       1.0000    0.16950   0.07540   0.91030   Biso      1.000     O          -0.5443939999999999           
         O20       1.0000    0.08540   0.10060   0.79720   Biso      1.000     O          -0.526046           
         O21       1.0000    0.85820   0.83180   0.92600   Biso      1.000     O          -0.550351           
         O22       1.0000    0.74110   0.86640   0.82420   Biso      1.000     O          -0.577336           
         O23       1.0000    0.33020   0.13960   0.35150   Biso      1.000     O          -0.5476270000000001           
         O24       1.0000    0.98480   0.89940   0.70280   Biso      1.000     O          -0.506851           
         Yb1       1.0000    0.00000   0.00000   0.50000   Biso      1.000     Yb          1.289507  
         Yb2       1.0000    0.00000   0.00000   0.00000   Biso      1.000     Yb          1.2861040000000001  
         Yb3       1.0000    0.18227   0.00000   0.25000   Biso      1.000     Yb          1.351816  
         Yb4       1.0000    0.81773   0.00000   0.75000   Biso      1.000     Yb          1.351917 