
##########################################################################
#               Crystallographic Information Format file
#               Produced by PyCifRW module
#
#  This is a CIF file.  CIF has been adopted by the International
#  Union of Crystallography as the standard for data archiving and
#  transmission.
#
#  For information on this file format, follow the CIF links at
#  http://www.iucr.org
##########################################################################

data_image0

_cell_length_a                          8.2568
_cell_length_b                          12.3524
_cell_length_c                          17.501
_cell_angle_alpha                       97.3828
_cell_angle_beta                        90
_cell_angle_gamma                       109.525
_symmetry_space_group_name_H-M          'P 1'
_symmetry_int_tables_number             1
loop_
  _symmetry_equiv_pos_as_xyz
         'x, y, z' 
loop_
  _atom_site_label
  _atom_site_occupancy
  _atom_site_fract_x
  _atom_site_fract_y
  _atom_site_fract_z
  _atom_site_thermal_displace_type
  _atom_site_B_iso_or_equiv
  _atom_site_type_symbol
  _atom_site_charge
         C1        1.0000    0.65570   0.71240   0.57700   Biso      1.000     C          -0.08698600000000001          
         C2        1.0000    0.95120   0.51960   0.11370   Biso      1.000     C          0.067273  
         C3        1.0000    0.84185   0.40190   0.10040   Biso      1.000     C          -0.135152           
         C4        1.0000    0.85820   0.32280   0.14540   Biso      1.000     C          -0.024375           
         C5        1.0000    0.98480   0.35820   0.20720   Biso      1.000     C          -0.10187  
         C6        1.0000    0.08880   0.47120   0.22250   Biso      1.000     C          -0.119131           
         C7        1.0000    0.07700   0.55420   0.17540   Biso      1.000     C          0.066121  
         C8        1.0000    0.31820   0.86480   0.14670   Biso      1.000     C          0.588399  
         C9        1.0000    0.74630   0.19860   0.12890   Biso      1.000     C          0.6114470000000001  
         C10       1.0000    0.08660   0.62740   0.57640   Biso      1.000     C          -0.157359           
         C11       1.0000    0.09890   0.71820   0.53670   Biso      1.000     C          -0.008270999999999999         
         C12       1.0000    0.04930   0.69520   0.45620   Biso      1.000     C          -0.09479  
         C13       1.0000    0.94240   0.60120   0.06570   Biso      1.000     C          -0.115263           
         C14       1.0000    0.98750   0.58360   0.42050   Biso      1.000     C          -0.13330899999999998          
         C15       1.0000    0.17210   0.83960   0.57580   Biso      1.000     C          0.581255  
         C16       1.0000    0.47940   0.67020   0.68690   Biso      1.000     C          -0.137705           
         C17       1.0000    0.56480   0.74780   0.63760   Biso      1.000     C          -0.015799           
         C18       1.0000    0.65880   0.60120   0.56570   Biso      1.000     C          -0.112489           
         C19       1.0000    0.56840   0.51960   0.61370   Biso      1.000     C          0.06493600000000001           
         C20       1.0000    0.56005   0.40190   0.60040   Biso      1.000     C          -0.136053           
         C21       1.0000    0.46460   0.32280   0.64540   Biso      1.000     C          -0.023218           
         C22       1.0000    0.37340   0.35820   0.70720   Biso      1.000     C          -0.10130700000000001          
         C23       1.0000    0.38240   0.47120   0.72250   Biso      1.000     C          -0.120707           
         C24       1.0000    0.54660   0.86480   0.64670   Biso      1.000     C          0.5889439999999999  
         C25       1.0000    0.45230   0.19860   0.62890   Biso      1.000     C          0.610526  
         C26       1.0000    0.97450   0.48980   0.46010   Biso      1.000     C          0.071039  
         C27       1.0000    0.45920   0.37260   0.92360   Biso      1.000     C          -0.156166           
         C28       1.0000    0.05670   0.71240   0.07700   Biso      1.000     C          -0.087117           
         C29       1.0000    0.19080   0.67020   0.18690   Biso      1.000     C          -0.139101           
         C30       1.0000    0.91340   0.37260   0.42360   Biso      1.000     C          -0.157359           
         C31       1.0000    0.90110   0.28180   0.46330   Biso      1.000     C          -0.008272           
         C32       1.0000    0.95070   0.30480   0.54380   Biso      1.000     C          -0.09479  
         C33       1.0000    0.01250   0.41640   0.57950   Biso      1.000     C          -0.13330799999999998          
         C34       1.0000    0.02550   0.51020   0.53990   Biso      1.000     C          0.071039  
         C35       1.0000    0.82790   0.16040   0.42420   Biso      1.000     C          0.581257  
         C36       1.0000    0.52060   0.32980   0.31310   Biso      1.000     C          -0.137703           
         C37       1.0000    0.43520   0.25220   0.36240   Biso      1.000     C          -0.015798           
         C38       1.0000    0.34430   0.28760   0.42300   Biso      1.000     C          -0.086985           
         C39       1.0000    0.34120   0.39880   0.43430   Biso      1.000     C          -0.11248699999999999          
         C40       1.0000    0.43160   0.48040   0.38630   Biso      1.000     C          0.064934  
         C41       1.0000    0.18300   0.74780   0.13760   Biso      1.000     C          -0.0141   
         C42       1.0000    0.43995   0.59810   0.39960   Biso      1.000     C          -0.136051           
         C43       1.0000    0.62660   0.64180   0.29280   Biso      1.000     C          -0.10130800000000001          
         C44       1.0000    0.61760   0.52880   0.27750   Biso      1.000     C          -0.120706           
         C45       1.0000    0.52280   0.44580   0.32460   Biso      1.000     C          0.066879  
         C46       1.0000    0.45340   0.13520   0.35330   Biso      1.000     C          0.588933  
         C47       1.0000    0.54770   0.80140   0.37110   Biso      1.000     C          0.610525  
         C48       1.0000    0.54080   0.62740   0.07640   Biso      1.000     C          -0.156167           
         C49       1.0000    0.61930   0.71820   0.03670   Biso      1.000     C          -0.009134           
         C50       1.0000    0.64590   0.69520   0.95620   Biso      1.000     C          -0.094057           
         C51       1.0000    0.59610   0.58360   0.92050   Biso      1.000     C          -0.133022           
         C52       1.0000    0.51530   0.48980   0.96010   Biso      1.000     C          0.070435  
         C53       1.0000    0.66750   0.83960   0.07580   Biso      1.000     C          0.581553  
         C54       1.0000    0.53540   0.67720   0.35460   Biso      1.000     C          -0.023216999999999998         
         C55       1.0000    0.38070   0.28180   0.96330   Biso      1.000     C          -0.009134999999999999         
         C56       1.0000    0.47720   0.55420   0.67540   Biso      1.000     C          0.066881  
         C57       1.0000    0.40390   0.41640   0.07950   Biso      1.000     C          -0.13303099999999998          
         C58       1.0000    0.35410   0.30480   0.04380   Biso      1.000     C          -0.09405  
         C59       1.0000    0.68180   0.13520   0.85330   Biso      1.000     C          0.5884149999999999  
         C60       1.0000    0.92300   0.44580   0.82460   Biso      1.000     C          0.06612   
         C61       1.0000    0.91120   0.52880   0.77750   Biso      1.000     C          -0.11913599999999999          
         C62       1.0000    0.01520   0.64180   0.79280   Biso      1.000     C          -0.101863           
         C63       1.0000    0.14180   0.67720   0.85460   Biso      1.000     C          -0.024377           
         C64       1.0000    0.15815   0.59810   0.89960   Biso      1.000     C          -0.13514500000000002          
         C65       1.0000    0.25370   0.80140   0.87110   Biso      1.000     C          0.6114430000000001  
         C66       1.0000    0.05760   0.39880   0.93430   Biso      1.000     C          -0.11525999999999999          
         C67       1.0000    0.94330   0.28760   0.92300   Biso      1.000     C          -0.087119           
         C68       1.0000    0.81700   0.25220   0.86240   Biso      1.000     C          -0.0141   
         C69       1.0000    0.80920   0.32980   0.81310   Biso      1.000     C          -0.139098           
         C70       1.0000    0.33250   0.16040   0.92420   Biso      1.000     C          0.581549  
         C71       1.0000    0.48470   0.51020   0.03990   Biso      1.000     C          0.070437  
         C72       1.0000    0.04880   0.48040   0.88630   Biso      1.000     C          0.067271  
         H1        1.0000    0.05950   0.75760   0.42780   Biso      1.000     H          0.131717  
         H2        1.0000    0.95220   0.56900   0.36740   Biso      1.000     H          0.11143399999999999           
         H3        1.0000    0.42150   0.69500   0.72880   Biso      1.000     H          0.12633   
         H4        1.0000    0.71520   0.76580   0.54360   Biso      1.000     H          0.127048  
         H5        1.0000    0.72240   0.57880   0.52510   Biso      1.000     H          0.107752  
         H6        1.0000    0.62160   0.37760   0.55970   Biso      1.000     H          0.123485  
         H7        1.0000    0.30610   0.30280   0.73790   Biso      1.000     H          0.12588   
         H8        1.0000    0.32460   0.49460   0.76500   Biso      1.000     H          0.113872  
         H9        1.0000    0.38320   0.43100   0.13260   Biso      1.000     H          0.111207  
         H10       1.0000    0.30190   0.24240   0.07220   Biso      1.000     H          0.131678  
         H11       1.0000    0.72650   0.30500   0.77120   Biso      1.000     H          0.126643  
         H12       1.0000    0.94940   0.23420   0.95640   Biso      1.000     H          0.126994  
         H13       1.0000    0.14360   0.42120   0.97490   Biso      1.000     H          0.10878199999999999           
         H14       1.0000    0.24400   0.62240   0.94030   Biso      1.000     H          0.122918  
         H15       1.0000    0.83000   0.50540   0.73500   Biso      1.000     H          0.11356199999999998           
         H16       1.0000    0.00330   0.69720   0.76210   Biso      1.000     H          0.125612  
         H17       1.0000    0.47670   0.35720   0.87020   Biso      1.000     H          0.11846300000000001           
         H18       1.0000    0.11950   0.64280   0.62980   Biso      1.000     H          0.119243  
         H19       1.0000    0.75600   0.37760   0.05970   Biso      1.000     H          0.122919  
         H20       1.0000    0.99670   0.30280   0.23790   Biso      1.000     H          0.125612  
         H21       1.0000    0.88050   0.35720   0.37020   Biso      1.000     H          0.119244  
         H22       1.0000    0.17000   0.49460   0.26500   Biso      1.000     H          0.11356199999999998           
         H23       1.0000    0.04780   0.43100   0.63260   Biso      1.000     H          0.11143399999999999           
         H24       1.0000    0.57850   0.30500   0.27120   Biso      1.000     H          0.126331  
         H25       1.0000    0.28480   0.23420   0.45640   Biso      1.000     H          0.127048  
         H26       1.0000    0.27760   0.42120   0.47490   Biso      1.000     H          0.107751  
         H27       1.0000    0.37840   0.62240   0.44030   Biso      1.000     H          0.123485  
         H28       1.0000    0.94050   0.24240   0.57220   Biso      1.000     H          0.131717  
         H29       1.0000    0.67540   0.50540   0.23500   Biso      1.000     H          0.113872  
         H30       1.0000    0.52330   0.64280   0.12980   Biso      1.000     H          0.11846400000000001           
         H31       1.0000    0.69810   0.75760   0.92780   Biso      1.000     H          0.131679  
         H32       1.0000    0.61680   0.56900   0.86740   Biso      1.000     H          0.111206  
         H33       1.0000    0.27350   0.69500   0.22880   Biso      1.000     H          0.126644  
         H34       1.0000    0.05060   0.76580   0.04360   Biso      1.000     H          0.126994  
         H35       1.0000    0.85640   0.57880   0.02510   Biso      1.000     H          0.10878199999999999           
         H36       1.0000    0.69390   0.69720   0.26210   Biso      1.000     H          0.125879  
         O1        1.0000    0.23385   0.91970   0.53316   Biso      1.000     O          -0.520803           
         O2        1.0000    0.76232   0.13044   0.17270   Biso      1.000     O          -0.585557           
         O3        1.0000    0.64143   0.16746   0.07100   Biso      1.000     O          -0.568084           
         O4        1.0000    0.40982   0.89704   0.20750   Biso      1.000     O          -0.514258           
         O5        1.0000    0.33556   0.92572   0.09210   Biso      1.000     O          -0.532542           
         O6        1.0000    0.51278   0.10296   0.29250   Biso      1.000     O          -0.514309           
         O7        1.0000    0.68585   0.91970   0.03316   Biso      1.000     O          -0.52075  
         O8        1.0000    0.40984   0.07428   0.40790   Biso      1.000     O          -0.5325529999999999           
         O9        1.0000    0.47397   0.83254   0.42900   Biso      1.000     O          -0.567704           
         O10       1.0000    0.17099   0.85918   0.64755   Biso      1.000     O          -0.544475           
         O11       1.0000    0.63188   0.86956   0.32730   Biso      1.000     O          -0.586163           
         O12       1.0000    0.68819   0.85918   0.14755   Biso      1.000     O          -0.544388           
         O13       1.0000    0.59016   0.92572   0.59210   Biso      1.000     O          -0.532559           
         O14       1.0000    0.76615   0.08030   0.46684   Biso      1.000     O          -0.5208050000000001           
         O15       1.0000    0.52603   0.16746   0.57100   Biso      1.000     O          -0.567704           
         O16       1.0000    0.36812   0.13044   0.67270   Biso      1.000     O          -0.586163           
         O17       1.0000    0.31415   0.08030   0.96684   Biso      1.000     O          -0.520741           
         O18       1.0000    0.31181   0.14082   0.85245   Biso      1.000     O          -0.544381           
         O19       1.0000    0.66444   0.07428   0.90790   Biso      1.000     O          -0.53256  
         O20       1.0000    0.59018   0.10296   0.79250   Biso      1.000     O          -0.514273           
         O21       1.0000    0.35857   0.83254   0.92900   Biso      1.000     O          -0.568079           
         O22       1.0000    0.23768   0.86956   0.82730   Biso      1.000     O          -0.585554           
         O23       1.0000    0.82901   0.14082   0.35245   Biso      1.000     O          -0.5444760000000001           
         O24       1.0000    0.48722   0.89704   0.70750   Biso      1.000     O          -0.514317           
         Yb1       1.0000    0.50000   0.00000   0.50000   Biso      1.000     Yb          1.286002  
         Yb2       1.0000    0.50000   0.00000   0.00000   Biso      1.000     Yb          1.284958  
         Yb3       1.0000    0.68531   0.00000   0.25000   Biso      1.000     Yb          1.361165  
         Yb4       1.0000    0.31469   0.00000   0.75000   Biso      1.000     Yb          1.3611659999999999 