
##########################################################################
#               Crystallographic Information Format file
#               Produced by PyCifRW module
#
#  This is a CIF file.  CIF has been adopted by the International
#  Union of Crystallography as the standard for data archiving and
#  transmission.
#
#  For information on this file format, follow the CIF links at
#  http://www.iucr.org
##########################################################################

data_image0

_cell_length_a                          8.7253
_cell_length_b                          12.7809
_cell_length_c                          19.4746
_cell_angle_alpha                       90
_cell_angle_beta                        90
_cell_angle_gamma                       109.959
_symmetry_space_group_name_H-M          'P 1'
_symmetry_int_tables_number             1
loop_
  _symmetry_equiv_pos_as_xyz
         'x, y, z' 
loop_
  _atom_site_label
  _atom_site_occupancy
  _atom_site_fract_x
  _atom_site_fract_y
  _atom_site_fract_z
  _atom_site_thermal_displace_type
  _atom_site_B_iso_or_equiv
  _atom_site_type_symbol
  _atom_site_charge
         C1        1.0000    0.99706   0.58732   0.31492   Biso      1.000     C          -0.337765           
         C2        1.0000    0.49228   0.56876   0.61974   Biso      1.000     C          0.709671  
         C3        1.0000    0.59026   0.58732   0.68508   Biso      1.000     C          -0.338063           
         C4        1.0000    0.65469   0.05758   0.02466   Biso      1.000     C          -0.11161700000000001          
         C5        1.0000    0.50772   0.43124   0.11974   Biso      1.000     C          0.709671  
         C6        1.0000    0.40974   0.41268   0.18508   Biso      1.000     C          -0.338063           
         C7        1.0000    0.40289   0.05758   0.97534   Biso      1.000     C          -0.11272599999999999          
         C8        1.0000    0.92352   0.43124   0.88026   Biso      1.000     C          0.7110850000000001  
         C9        1.0000    0.00294   0.41268   0.81492   Biso      1.000     C          -0.337765           
         C10       1.0000    0.59711   0.94242   0.47534   Biso      1.000     C          -0.11272599999999999          
         C11       1.0000    0.07648   0.56876   0.38026   Biso      1.000     C          0.7110850000000001  
         C12       1.0000    0.48764   0.56088   0.75000   Biso      1.000     C          -0.11665  
         C13       1.0000    0.65469   0.05758   0.47534   Biso      1.000     C          -0.111606           
         C14       1.0000    0.50772   0.43124   0.38026   Biso      1.000     C          0.709671  
         C15       1.0000    0.40974   0.41268   0.31492   Biso      1.000     C          -0.338063           
         C16       1.0000    0.34531   0.94242   0.97534   Biso      1.000     C          -0.111606           
         C17       1.0000    0.49228   0.56876   0.88026   Biso      1.000     C          0.709671  
         C18       1.0000    0.59026   0.58732   0.81492   Biso      1.000     C          -0.338063           
         C19       1.0000    0.59711   0.94242   0.02466   Biso      1.000     C          -0.11271600000000001          
         C20       1.0000    0.07648   0.56876   0.11974   Biso      1.000     C          0.7110850000000001  
         C21       1.0000    0.99706   0.58732   0.18508   Biso      1.000     C          -0.337765           
         C22       1.0000    0.40289   0.05758   0.52466   Biso      1.000     C          -0.11272599999999999          
         C23       1.0000    0.92352   0.43124   0.61974   Biso      1.000     C          0.7110850000000001  
         C24       1.0000    0.00294   0.41268   0.68508   Biso      1.000     C          -0.337765           
         C25       1.0000    0.37958   0.75916   0.50000   Biso      1.000     C          0.585846  
         C26       1.0000    0.44175   0.88350   0.50000   Biso      1.000     C          -0.0037240000000000003        
         C27       1.0000    0.62042   0.24084   0.00000   Biso      1.000     C          0.585846  
         C28       1.0000    0.55825   0.11650   0.00000   Biso      1.000     C          -0.003722           
         C29       1.0000    0.62042   0.24084   0.50000   Biso      1.000     C          0.585846  
         C30       1.0000    0.55825   0.11650   0.50000   Biso      1.000     C          -0.0037229999999999997        
         C31       1.0000    0.34531   0.94242   0.52466   Biso      1.000     C          -0.111606           
         C32       1.0000    0.37958   0.75916   0.00000   Biso      1.000     C          0.585846  
         C33       1.0000    0.44175   0.88350   0.00000   Biso      1.000     C          -0.0037240000000000003        
         C34       1.0000    0.07324   0.56088   0.25000   Biso      1.000     C          -0.1159   
         C35       1.0000    0.92676   0.43912   0.75000   Biso      1.000     C          -0.1159   
         C36       1.0000    0.51236   0.43912   0.25000   Biso      1.000     C          -0.11665  
         H1        1.0000    0.57970   0.51900   0.25000   Biso      1.000     H          0.097113  
         H2        1.0000    0.00320   0.66600   0.31320   Biso      1.000     H          0.14413199999999998           
         H3        1.0000    0.66420   0.90320   0.45840   Biso      1.000     H          0.11703599999999999           
         H4        1.0000    0.11980   0.45960   0.81600   Biso      1.000     H          0.135765  
         H5        1.0000    0.99680   0.33400   0.81320   Biso      1.000     H          0.14413199999999998           
         H6        1.0000    0.33580   0.09680   0.95840   Biso      1.000     H          0.11703599999999999           
         H7        1.0000    0.33720   0.33400   0.18680   Biso      1.000     H          0.144958  
         H8        1.0000    0.88020   0.54040   0.31600   Biso      1.000     H          0.135765  
         H9        1.0000    0.76100   0.09680   0.04160   Biso      1.000     H          0.116409  
         H10       1.0000    0.66020   0.54040   0.68400   Biso      1.000     H          0.13558800000000001           
         H11       1.0000    0.66280   0.66600   0.68680   Biso      1.000     H          0.144958  
         H12       1.0000    0.23900   0.90320   0.54160   Biso      1.000     H          0.116408  
         H13       1.0000    0.33980   0.45960   0.18400   Biso      1.000     H          0.13558800000000001           
         H14       1.0000    0.80860   0.39580   0.75000   Biso      1.000     H          0.10551500000000001           
         H15       1.0000    0.76100   0.09680   0.45840   Biso      1.000     H          0.116408  
         H16       1.0000    0.33980   0.45960   0.31600   Biso      1.000     H          0.13558800000000001           
         H17       1.0000    0.19140   0.60420   0.25000   Biso      1.000     H          0.10551500000000001           
         H18       1.0000    0.06070   0.48100   0.25000   Biso      1.000     H          0.097485  
         H19       1.0000    0.58720   0.39580   0.25000   Biso      1.000     H          0.10651600000000001           
         H20       1.0000    0.42030   0.48100   0.75000   Biso      1.000     H          0.097113  
         H21       1.0000    0.41280   0.60420   0.75000   Biso      1.000     H          0.10651600000000001           
         H22       1.0000    0.11980   0.45960   0.68400   Biso      1.000     H          0.135765  
         H23       1.0000    0.33720   0.33400   0.31320   Biso      1.000     H          0.144958  
         H24       1.0000    0.99680   0.33400   0.68680   Biso      1.000     H          0.14413199999999998           
         H25       1.0000    0.88020   0.54040   0.18400   Biso      1.000     H          0.135765  
         H26       1.0000    0.00320   0.66600   0.18680   Biso      1.000     H          0.14413199999999998           
         H27       1.0000    0.66420   0.90320   0.04160   Biso      1.000     H          0.11703499999999999           
         H28       1.0000    0.66020   0.54040   0.81600   Biso      1.000     H          0.13558800000000001           
         H29       1.0000    0.66280   0.66600   0.81320   Biso      1.000     H          0.144958  
         H30       1.0000    0.23900   0.90320   0.95840   Biso      1.000     H          0.116408  
         H31       1.0000    0.33580   0.09680   0.54160   Biso      1.000     H          0.11703599999999999           
         H32       1.0000    0.93930   0.51900   0.75000   Biso      1.000     H          0.097485  
         Nd1       1.0000    0.25807   0.51614   0.50000   Biso      1.000     Nd          2.077947  
         Nd2       1.0000    0.25807   0.51614   0.00000   Biso      1.000     Nd          2.077947  
         Nd3       1.0000    0.74193   0.48386   0.50000   Biso      1.000     Nd          2.077947  
         Nd4       1.0000    0.74193   0.48386   0.00000   Biso      1.000     Nd          2.077947  
         O1        1.0000    0.52811   0.29302   0.51954   Biso      1.000     O          -0.642914           
         O2        1.0000    0.99254   0.53908   0.06543   Biso      1.000     O          -0.777335           
         O3        1.0000    0.22686   0.58272   0.11886   Biso      1.000     O          -0.610846           
         O4        1.0000    0.47189   0.70698   0.01954   Biso      1.000     O          -0.642914           
         O5        1.0000    0.54654   0.53908   0.93457   Biso      1.000     O          -0.776546           
         O6        1.0000    0.35586   0.58272   0.88114   Biso      1.000     O          -0.610391           
         O7        1.0000    0.23509   0.70698   0.98046   Biso      1.000     O          -0.643558           
         O8        1.0000    0.45346   0.46092   0.43457   Biso      1.000     O          -0.776546           
         O9        1.0000    0.64414   0.41728   0.38114   Biso      1.000     O          -0.610391           
         O10       1.0000    0.76491   0.29302   0.48046   Biso      1.000     O          -0.643558           
         O11       1.0000    0.99254   0.53908   0.43457   Biso      1.000     O          -0.777335           
         O12       1.0000    0.22686   0.58272   0.38114   Biso      1.000     O          -0.610846           
         O13       1.0000    0.47189   0.70698   0.48046   Biso      1.000     O          -0.642914           
         O14       1.0000    0.00746   0.46092   0.93457   Biso      1.000     O          -0.777335           
         O15       1.0000    0.77314   0.41728   0.88114   Biso      1.000     O          -0.610846           
         O16       1.0000    0.52811   0.29302   0.98046   Biso      1.000     O          -0.642914           
         O17       1.0000    0.45346   0.46092   0.06543   Biso      1.000     O          -0.776546           
         O18       1.0000    0.64414   0.41728   0.11886   Biso      1.000     O          -0.610391           
         O19       1.0000    0.76491   0.29302   0.01954   Biso      1.000     O          -0.643558           
         O20       1.0000    0.54654   0.53908   0.56543   Biso      1.000     O          -0.776546           
         O21       1.0000    0.35586   0.58272   0.61886   Biso      1.000     O          -0.610391           
         O22       1.0000    0.23509   0.70698   0.51954   Biso      1.000     O          -0.643558           
         O23       1.0000    0.77314   0.41728   0.61886   Biso      1.000     O          -0.610846           
         O24       1.0000    0.00746   0.46092   0.56543   Biso      1.000     O          -0.777335 