
##########################################################################
#               Crystallographic Information Format file
#               Produced by PyCifRW module
#
#  This is a CIF file.  CIF has been adopted by the International
#  Union of Crystallography as the standard for data archiving and
#  transmission.
#
#  For information on this file format, follow the CIF links at
#  http://www.iucr.org
##########################################################################

data_image0

_cell_length_a                          13.5576
_cell_length_b                          13.5576
_cell_length_c                          8.0994
_cell_angle_alpha                       90
_cell_angle_beta                        90
_cell_angle_gamma                       120
_symmetry_space_group_name_H-M          'P 1'
_symmetry_int_tables_number             1
loop_
  _symmetry_equiv_pos_as_xyz
         'x, y, z' 
loop_
  _atom_site_label
  _atom_site_occupancy
  _atom_site_fract_x
  _atom_site_fract_y
  _atom_site_fract_z
  _atom_site_thermal_displace_type
  _atom_site_B_iso_or_equiv
  _atom_site_type_symbol
  _atom_site_charge
         C1        1.0000    0.21050   0.53080   0.06060   Biso      1.000     C          -0.121583           
         C2        1.0000    0.74750   0.08710   0.16470   Biso      1.000     C          0.016408  
         C3        1.0000    0.32030   0.78950   0.06060   Biso      1.000     C          -0.121541           
         C4        1.0000    0.78950   0.46920   0.56060   Biso      1.000     C          -0.121577           
         C5        1.0000    0.10680   0.26140   0.78050   Biso      1.000     C          0.602371  
         C6        1.0000    0.84540   0.10680   0.28050   Biso      1.000     C          0.602376  
         C7        1.0000    0.20160   0.64700   0.77300   Biso      1.000     C          -0.084382           
         C8        1.0000    0.44540   0.79840   0.77300   Biso      1.000     C          -0.084348           
         C9        1.0000    0.67970   0.21050   0.56060   Biso      1.000     C          -0.121519           
         C10       1.0000    0.34900   0.03420   0.65890   Biso      1.000     C          -0.042444           
         C11       1.0000    0.08710   0.33960   0.66470   Biso      1.000     C          0.016406  
         C12       1.0000    0.89320   0.73860   0.28050   Biso      1.000     C          0.602376  
         C13       1.0000    0.91290   0.66040   0.16470   Biso      1.000     C          0.016407  
         C14       1.0000    0.03420   0.68520   0.15890   Biso      1.000     C          -0.042442           
         C15       1.0000    0.65100   0.96580   0.15890   Biso      1.000     C          -0.042441           
         C16       1.0000    0.25250   0.91290   0.66470   Biso      1.000     C          0.016408  
         C17       1.0000    0.46920   0.67970   0.06060   Biso      1.000     C          -0.121614           
         C18       1.0000    0.64700   0.44540   0.27300   Biso      1.000     C          -0.084302           
         C19       1.0000    0.73860   0.84540   0.78050   Biso      1.000     C          0.602372  
         C20       1.0000    0.33960   0.25250   0.16470   Biso      1.000     C          0.016405  
         C21       1.0000    0.15460   0.89320   0.78050   Biso      1.000     C          0.602369  
         C22       1.0000    0.66040   0.74750   0.66470   Biso      1.000     C          0.01641   
         C23       1.0000    0.96580   0.31480   0.65890   Biso      1.000     C          -0.042445           
         C24       1.0000    0.26140   0.15460   0.28050   Biso      1.000     C          0.602373  
         C25       1.0000    0.55460   0.20160   0.27300   Biso      1.000     C          -0.08435  
         C26       1.0000    0.35300   0.55460   0.77300   Biso      1.000     C          -0.084308           
         C27       1.0000    0.53080   0.32030   0.56060   Biso      1.000     C          -0.121591           
         C28       1.0000    0.68520   0.65100   0.65890   Biso      1.000     C          -0.042442           
         C29       1.0000    0.31480   0.34900   0.15890   Biso      1.000     C          -0.042443           
         C30       1.0000    0.79840   0.35300   0.27300   Biso      1.000     C          -0.084364           
         Cr1       1.0000    0.33333   0.66667   0.92380   Biso      1.000     Cr          0.623032  
         Cr2       1.0000    0.66667   0.33333   0.42380   Biso      1.000     Cr          0.622962  
         H1        1.0000    0.54510   0.98410   0.30330   Biso      1.000     H          0.310411  
         H2        1.0000    0.28440   0.86740   0.70860   Biso      1.000     H          0.086891  
         H3        1.0000    0.34730   0.39330   0.05920   Biso      1.000     H          0.095721  
         H4        1.0000    0.43900   0.45490   0.30330   Biso      1.000     H          0.310409  
         H5        1.0000    0.19660   0.91690   0.44070   Biso      1.000     H          0.329088  
         H6        1.0000    0.34680   0.48030   0.29770   Biso      1.000     H          0.314389  
         H7        1.0000    0.98410   0.43900   0.80330   Biso      1.000     H          0.310409  
         H8        1.0000    0.25450   0.85040   0.44490   Biso      1.000     H          0.312445  
         H9        1.0000    0.41700   0.28440   0.20860   Biso      1.000     H          0.086903  
         H10       1.0000    0.27970   0.19660   0.94070   Biso      1.000     H          0.329091  
         H11       1.0000    0.59590   0.74550   0.44490   Biso      1.000     H          0.312447  
         H12       1.0000    0.72030   0.80340   0.44070   Biso      1.000     H          0.32909   
         H13       1.0000    0.40410   0.25450   0.94490   Biso      1.000     H          0.312455  
         H14       1.0000    0.58300   0.71560   0.70860   Biso      1.000     H          0.086893  
         H15       1.0000    0.95400   0.34730   0.55920   Biso      1.000     H          0.095722  
         H16       1.0000    0.65320   0.51970   0.79770   Biso      1.000     H          0.314394  
         H17       1.0000    0.56100   0.54510   0.80330   Biso      1.000     H          0.310408  
         H18       1.0000    0.91460   0.23300   0.65550   Biso      1.000     H          0.108335  
         H19       1.0000    0.08540   0.76700   0.15550   Biso      1.000     H          0.108336  
         H20       1.0000    0.04600   0.65270   0.05920   Biso      1.000     H          0.095722  
         H21       1.0000    0.23300   0.31840   0.15550   Biso      1.000     H          0.108334  
         H22       1.0000    0.01590   0.56100   0.30330   Biso      1.000     H          0.31041   
         H23       1.0000    0.71560   0.13260   0.20860   Biso      1.000     H          0.086904  
         H24       1.0000    0.60670   0.95400   0.05920   Biso      1.000     H          0.095724  
         H25       1.0000    0.68160   0.91460   0.15550   Biso      1.000     H          0.108337  
         H26       1.0000    0.65270   0.60670   0.55920   Biso      1.000     H          0.095724  
         H27       1.0000    0.80340   0.08310   0.94070   Biso      1.000     H          0.329095  
         H28       1.0000    0.31840   0.08540   0.65550   Biso      1.000     H          0.108335  
         H29       1.0000    0.39330   0.04600   0.55920   Biso      1.000     H          0.095721  
         H30       1.0000    0.74550   0.14960   0.94490   Biso      1.000     H          0.312457  
         H31       1.0000    0.51970   0.86650   0.29770   Biso      1.000     H          0.314391  
         H32       1.0000    0.14960   0.40410   0.44490   Biso      1.000     H          0.312444  
         H33       1.0000    0.13260   0.41700   0.70860   Biso      1.000     H          0.086892  
         H34       1.0000    0.45490   0.01590   0.80330   Biso      1.000     H          0.310405  
         H35       1.0000    0.85040   0.59590   0.94490   Biso      1.000     H          0.312456  
         H36       1.0000    0.91690   0.72030   0.94070   Biso      1.000     H          0.329094  
         H37       1.0000    0.86650   0.34680   0.79770   Biso      1.000     H          0.314393  
         H38       1.0000    0.86740   0.58300   0.20860   Biso      1.000     H          0.086902  
         H39       1.0000    0.48030   0.13350   0.79770   Biso      1.000     H          0.314391  
         H40       1.0000    0.13350   0.65320   0.29770   Biso      1.000     H          0.314389  
         H41       1.0000    0.08310   0.27970   0.44070   Biso      1.000     H          0.329086  
         H42       1.0000    0.76700   0.68160   0.65550   Biso      1.000     H          0.108336  
         Mn1       1.0000    0.96383   0.29573   0.04415   Biso      1.000     Mn          0.900824  
         Mn2       1.0000    0.33190   0.03617   0.04415   Biso      1.000     Mn          0.90082   
         Mn3       1.0000    0.29573   0.33190   0.54415   Biso      1.000     Mn          0.900826  
         Mn4       1.0000    0.70427   0.66810   0.04415   Biso      1.000     Mn          0.900816  
         Mn5       1.0000    0.03617   0.70427   0.54415   Biso      1.000     Mn          0.900821  
         Mn6       1.0000    0.66810   0.96383   0.54415   Biso      1.000     Mn          0.900818  
         N1        1.0000    0.93920   0.36270   0.80450   Biso      1.000     N          -0.640302           
         N2        1.0000    0.45130   0.31880   0.61090   Biso      1.000     N          -0.342055           
         N3        1.0000    0.13350   0.34010   0.50000   Biso      1.000     N          -0.654365           
         N4        1.0000    0.79340   0.13350   0.00000   Biso      1.000     N          -0.654353           
         N5        1.0000    0.36270   0.42350   0.30450   Biso      1.000     N          -0.640299           
         N6        1.0000    0.57650   0.93920   0.30450   Biso      1.000     N          -0.640304           
         N7        1.0000    0.68120   0.13250   0.61090   Biso      1.000     N          -0.342078           
         N8        1.0000    0.63660   0.50670   0.18960   Biso      1.000     N          -0.351916           
         N9        1.0000    0.50670   0.87010   0.68960   Biso      1.000     N          -0.351827           
         N10       1.0000    0.49330   0.12990   0.18960   Biso      1.000     N          -0.351901           
         N11       1.0000    0.31880   0.86750   0.11090   Biso      1.000     N          -0.342015           
         N12       1.0000    0.34010   0.20660   0.00000   Biso      1.000     N          -0.654344           
         N13       1.0000    0.86650   0.65990   0.00000   Biso      1.000     N          -0.654349           
         N14       1.0000    0.06080   0.63730   0.30450   Biso      1.000     N          -0.640303           
         N15       1.0000    0.42350   0.06080   0.80450   Biso      1.000     N          -0.640301           
         N16       1.0000    0.86750   0.54870   0.61090   Biso      1.000     N          -0.342075           
         N17       1.0000    0.12990   0.63660   0.68960   Biso      1.000     N          -0.351815           
         N18       1.0000    0.13250   0.45130   0.11090   Biso      1.000     N          -0.342003           
         N19       1.0000    0.20660   0.86650   0.50000   Biso      1.000     N          -0.654366           
         N20       1.0000    0.65990   0.79340   0.50000   Biso      1.000     N          -0.654372           
         N21       1.0000    0.87010   0.36340   0.18960   Biso      1.000     N          -0.35188  
         N22       1.0000    0.63730   0.57650   0.80450   Biso      1.000     N          -0.640303           
         N23       1.0000    0.54870   0.68120   0.11090   Biso      1.000     N          -0.341987           
         N24       1.0000    0.36340   0.49330   0.68960   Biso      1.000     N          -0.351856           
         O1        1.0000    0.22620   0.17670   0.40710   Biso      1.000     O          -0.515445           
         O2        1.0000    0.23970   0.05440   0.24520   Biso      1.000     O          -0.532184           
         O3        1.0000    0.17670   0.95050   0.90710   Biso      1.000     O          -0.515476           
         O4        1.0000    0.94560   0.18530   0.24520   Biso      1.000     O          -0.532178           
         O5        1.0000    0.18530   0.23970   0.74520   Biso      1.000     O          -0.532186           
         O6        1.0000    0.95050   0.77380   0.40710   Biso      1.000     O          -0.515445           
         O7        1.0000    0.81470   0.76030   0.24520   Biso      1.000     O          -0.532186           
         O8        1.0000    0.77380   0.82330   0.90710   Biso      1.000     O          -0.515475           
         O9        1.0000    0.76030   0.94560   0.74520   Biso      1.000     O          -0.532197           
         O10       1.0000    0.05440   0.81470   0.74520   Biso      1.000     O          -0.532193           
         O11       1.0000    0.82330   0.04950   0.40710   Biso      1.000     O          -0.51544  
         O12       1.0000    0.04950   0.22620   0.90710   Biso      1.000     O          -0.515468 