
##########################################################################
#               Crystallographic Information Format file
#               Produced by PyCifRW module
#
#  This is a CIF file.  CIF has been adopted by the International
#  Union of Crystallography as the standard for data archiving and
#  transmission.
#
#  For information on this file format, follow the CIF links at
#  http://www.iucr.org
##########################################################################

data_image0

_cell_length_a                          13.5554
_cell_length_b                          13.5554
_cell_length_c                          8.1351
_cell_angle_alpha                       90
_cell_angle_beta                        90
_cell_angle_gamma                       120
_symmetry_space_group_name_H-M          'P 1'
_symmetry_int_tables_number             1
loop_
  _symmetry_equiv_pos_as_xyz
         'x, y, z' 
loop_
  _atom_site_label
  _atom_site_occupancy
  _atom_site_fract_x
  _atom_site_fract_y
  _atom_site_fract_z
  _atom_site_thermal_displace_type
  _atom_site_B_iso_or_equiv
  _atom_site_type_symbol
  _atom_site_charge
         C1        1.0000    0.21030   0.53130   0.05950   Biso      1.000     C          -0.119788           
         C2        1.0000    0.74730   0.08630   0.16550   Biso      1.000     C          0.015246000000000001          
         C3        1.0000    0.32100   0.78970   0.05950   Biso      1.000     C          -0.119796           
         C4        1.0000    0.78970   0.46870   0.55950   Biso      1.000     C          -0.119777           
         C5        1.0000    0.10660   0.26120   0.78130   Biso      1.000     C          0.604562  
         C6        1.0000    0.84540   0.10660   0.28130   Biso      1.000     C          0.60456   
         C7        1.0000    0.20150   0.64800   0.77280   Biso      1.000     C          -0.082775           
         C8        1.0000    0.44650   0.79850   0.77280   Biso      1.000     C          -0.082742           
         C9        1.0000    0.67900   0.21030   0.55950   Biso      1.000     C          -0.119797           
         C10       1.0000    0.34870   0.03510   0.66150   Biso      1.000     C          -0.041749           
         C11       1.0000    0.08630   0.33900   0.66550   Biso      1.000     C          0.015244999999999998          
         C12       1.0000    0.89340   0.73880   0.28130   Biso      1.000     C          0.60456   
         C13       1.0000    0.91370   0.66100   0.16550   Biso      1.000     C          0.015244  
         C14       1.0000    0.03510   0.68640   0.16150   Biso      1.000     C          -0.041750999999999996         
         C15       1.0000    0.65130   0.96490   0.16150   Biso      1.000     C          -0.041749           
         C16       1.0000    0.25270   0.91370   0.66550   Biso      1.000     C          0.015244999999999998          
         C17       1.0000    0.46870   0.67900   0.05950   Biso      1.000     C          -0.11986500000000001          
         C18       1.0000    0.64800   0.44650   0.27280   Biso      1.000     C          -0.082679           
         C19       1.0000    0.73880   0.84540   0.78130   Biso      1.000     C          0.6045590000000001  
         C20       1.0000    0.33900   0.25270   0.16550   Biso      1.000     C          0.015246000000000001          
         C21       1.0000    0.15460   0.89340   0.78130   Biso      1.000     C          0.604562  
         C22       1.0000    0.66100   0.74730   0.66550   Biso      1.000     C          0.015244999999999998          
         C23       1.0000    0.96490   0.31360   0.66150   Biso      1.000     C          -0.041748           
         C24       1.0000    0.26120   0.15460   0.28130   Biso      1.000     C          0.604563  
         C25       1.0000    0.55350   0.20150   0.27280   Biso      1.000     C          -0.082732           
         C26       1.0000    0.35200   0.55350   0.77280   Biso      1.000     C          -0.082673           
         C27       1.0000    0.53130   0.32100   0.55950   Biso      1.000     C          -0.119841           
         C28       1.0000    0.68640   0.65130   0.66150   Biso      1.000     C          -0.041749           
         C29       1.0000    0.31360   0.34870   0.16150   Biso      1.000     C          -0.04175  
         C30       1.0000    0.79850   0.35200   0.27280   Biso      1.000     C          -0.08276499999999999          
         Cr1       1.0000    0.33333   0.66667   0.92300   Biso      1.000     Cr          0.622694  
         Cr2       1.0000    0.66667   0.33333   0.42300   Biso      1.000     Cr          0.622726  
         H1        1.0000    0.54580   0.98370   0.30340   Biso      1.000     H          0.310749  
         H2        1.0000    0.28470   0.86810   0.70840   Biso      1.000     H          0.08694600000000001           
         H3        1.0000    0.34530   0.39300   0.06210   Biso      1.000     H          0.09435   
         H4        1.0000    0.43790   0.45420   0.30340   Biso      1.000     H          0.310756  
         H5        1.0000    0.19650   0.91850   0.44220   Biso      1.000     H          0.330867  
         H6        1.0000    0.34590   0.47980   0.29810   Biso      1.000     H          0.314042  
         H7        1.0000    0.98370   0.43790   0.80340   Biso      1.000     H          0.310754  
         H8        1.0000    0.25470   0.85220   0.44520   Biso      1.000     H          0.312187  
         H9        1.0000    0.41660   0.28470   0.20840   Biso      1.000     H          0.086949  
         H10       1.0000    0.27800   0.19650   0.94220   Biso      1.000     H          0.330871  
         H11       1.0000    0.59750   0.74530   0.44520   Biso      1.000     H          0.312181  
         H12       1.0000    0.72200   0.80350   0.44220   Biso      1.000     H          0.330863  
         H13       1.0000    0.40250   0.25470   0.94520   Biso      1.000     H          0.312194  
         H14       1.0000    0.58340   0.71530   0.70840   Biso      1.000     H          0.08694199999999999           
         H15       1.0000    0.95230   0.34530   0.56210   Biso      1.000     H          0.094348  
         H16       1.0000    0.65410   0.52020   0.79810   Biso      1.000     H          0.314039  
         H17       1.0000    0.56210   0.54580   0.80340   Biso      1.000     H          0.31075   
         H18       1.0000    0.91410   0.23180   0.65930   Biso      1.000     H          0.107446  
         H19       1.0000    0.08590   0.76820   0.15930   Biso      1.000     H          0.107445  
         H20       1.0000    0.04770   0.65470   0.06210   Biso      1.000     H          0.094348  
         H21       1.0000    0.23180   0.31770   0.15930   Biso      1.000     H          0.107445  
         H22       1.0000    0.01630   0.56210   0.30340   Biso      1.000     H          0.310754  
         H23       1.0000    0.71530   0.13190   0.20840   Biso      1.000     H          0.08694400000000001           
         H24       1.0000    0.60700   0.95230   0.06210   Biso      1.000     H          0.09434400000000001           
         H25       1.0000    0.68230   0.91410   0.15930   Biso      1.000     H          0.10744200000000001           
         H26       1.0000    0.65470   0.60700   0.56210   Biso      1.000     H          0.09434400000000001           
         H27       1.0000    0.80350   0.08150   0.94220   Biso      1.000     H          0.330868  
         H28       1.0000    0.31770   0.08590   0.65930   Biso      1.000     H          0.10744400000000001           
         H29       1.0000    0.39300   0.04770   0.56210   Biso      1.000     H          0.094349  
         H30       1.0000    0.74530   0.14780   0.94520   Biso      1.000     H          0.312189  
         H31       1.0000    0.52020   0.86610   0.29810   Biso      1.000     H          0.31403600000000004           
         H32       1.0000    0.14780   0.40250   0.44520   Biso      1.000     H          0.312188  
         H33       1.0000    0.13190   0.41660   0.70840   Biso      1.000     H          0.08694500000000001           
         H34       1.0000    0.45420   0.01630   0.80340   Biso      1.000     H          0.310754  
         H35       1.0000    0.85220   0.59750   0.94520   Biso      1.000     H          0.312191  
         H36       1.0000    0.91850   0.72200   0.94220   Biso      1.000     H          0.330868  
         H37       1.0000    0.86610   0.34590   0.79810   Biso      1.000     H          0.31404499999999996           
         H38       1.0000    0.86810   0.58340   0.20840   Biso      1.000     H          0.08694600000000001           
         H39       1.0000    0.47980   0.13390   0.79810   Biso      1.000     H          0.314044  
         H40       1.0000    0.13390   0.65410   0.29810   Biso      1.000     H          0.31404   
         H41       1.0000    0.08150   0.27800   0.44220   Biso      1.000     H          0.330868  
         H42       1.0000    0.76820   0.68230   0.65930   Biso      1.000     H          0.10744000000000001           
         Mn1       1.0000    0.96355   0.29470   0.04450   Biso      1.000     Mn          0.896125  
         Mn2       1.0000    0.33115   0.03645   0.04450   Biso      1.000     Mn          0.896122  
         Mn3       1.0000    0.29470   0.33115   0.54450   Biso      1.000     Mn          0.8961290000000001  
         Mn4       1.0000    0.70530   0.66885   0.04450   Biso      1.000     Mn          0.896122  
         Mn5       1.0000    0.03645   0.70530   0.54450   Biso      1.000     Mn          0.8961290000000001  
         Mn6       1.0000    0.66885   0.96355   0.54450   Biso      1.000     Mn          0.896125  
         N1        1.0000    0.93880   0.36170   0.80500   Biso      1.000     N          -0.639174           
         N2        1.0000    0.45210   0.31930   0.61110   Biso      1.000     N          -0.34281  
         N3        1.0000    0.13210   0.33880   0.50060   Biso      1.000     N          -0.656402           
         N4        1.0000    0.79330   0.13210   0.00060   Biso      1.000     N          -0.656392           
         N5        1.0000    0.36170   0.42290   0.30500   Biso      1.000     N          -0.63917  
         N6        1.0000    0.57710   0.93880   0.30500   Biso      1.000     N          -0.639171           
         N7        1.0000    0.68070   0.13280   0.61110   Biso      1.000     N          -0.342832           
         N8        1.0000    0.63840   0.50760   0.19090   Biso      1.000     N          -0.348208           
         N9        1.0000    0.50760   0.86920   0.69090   Biso      1.000     N          -0.34815999999999997          
         N10       1.0000    0.49240   0.13080   0.19090   Biso      1.000     N          -0.34817800000000004          
         N11       1.0000    0.31930   0.86720   0.11110   Biso      1.000     N          -0.34281799999999996          
         N12       1.0000    0.33880   0.20670   0.00060   Biso      1.000     N          -0.656393           
         N13       1.0000    0.86790   0.66120   0.00060   Biso      1.000     N          -0.6563899999999999           
         N14       1.0000    0.06120   0.63830   0.30500   Biso      1.000     N          -0.639167           
         N15       1.0000    0.42290   0.06120   0.80500   Biso      1.000     N          -0.6391720000000001           
         N16       1.0000    0.86720   0.54790   0.61110   Biso      1.000     N          -0.34284000000000003          
         N17       1.0000    0.13080   0.63840   0.69090   Biso      1.000     N          -0.34815100000000004          
         N18       1.0000    0.13280   0.45210   0.11110   Biso      1.000     N          -0.342825           
         N19       1.0000    0.20670   0.86790   0.50060   Biso      1.000     N          -0.656401           
         N20       1.0000    0.66120   0.79330   0.50060   Biso      1.000     N          -0.6564   
         N21       1.0000    0.86920   0.36160   0.19090   Biso      1.000     N          -0.348166           
         N22       1.0000    0.63830   0.57710   0.80500   Biso      1.000     N          -0.639175           
         N23       1.0000    0.54790   0.68070   0.11110   Biso      1.000     N          -0.34279299999999996          
         N24       1.0000    0.36160   0.49240   0.69090   Biso      1.000     N          -0.348191           
         O1        1.0000    0.22680   0.17680   0.40730   Biso      1.000     O          -0.5167510000000001           
         O2        1.0000    0.23750   0.05460   0.24490   Biso      1.000     O          -0.532467           
         O3        1.0000    0.17680   0.95000   0.90730   Biso      1.000     O          -0.5167689999999999           
         O4        1.0000    0.94540   0.18290   0.24490   Biso      1.000     O          -0.532475           
         O5        1.0000    0.18290   0.23750   0.74490   Biso      1.000     O          -0.5324760000000001           
         O6        1.0000    0.95000   0.77320   0.40730   Biso      1.000     O          -0.516755           
         O7        1.0000    0.81710   0.76250   0.24490   Biso      1.000     O          -0.532468           
         O8        1.0000    0.77320   0.82320   0.90730   Biso      1.000     O          -0.51678  
         O9        1.0000    0.76250   0.94540   0.74490   Biso      1.000     O          -0.532483           
         O10       1.0000    0.05460   0.81710   0.74490   Biso      1.000     O          -0.53247  
         O11       1.0000    0.82320   0.05000   0.40730   Biso      1.000     O          -0.516754           
         O12       1.0000    0.05000   0.22680   0.90730   Biso      1.000     O          -0.516768 