
##########################################################################
#               Crystallographic Information Format file
#               Produced by PyCifRW module
#
#  This is a CIF file.  CIF has been adopted by the International
#  Union of Crystallography as the standard for data archiving and
#  transmission.
#
#  For information on this file format, follow the CIF links at
#  http://www.iucr.org
##########################################################################

data_image0

_cell_length_a                          13.5416
_cell_length_b                          13.5416
_cell_length_c                          8.114
_cell_angle_alpha                       90
_cell_angle_beta                        90
_cell_angle_gamma                       120
_symmetry_space_group_name_H-M          'P 1'
_symmetry_int_tables_number             1
loop_
  _symmetry_equiv_pos_as_xyz
         'x, y, z' 
loop_
  _atom_site_label
  _atom_site_occupancy
  _atom_site_fract_x
  _atom_site_fract_y
  _atom_site_fract_z
  _atom_site_thermal_displace_type
  _atom_site_B_iso_or_equiv
  _atom_site_type_symbol
  _atom_site_charge
         C1        1.0000    0.21050   0.53090   0.06070   Biso      1.000     C          -0.12083699999999999          
         C2        1.0000    0.74770   0.08670   0.16460   Biso      1.000     C          0.015835  
         C3        1.0000    0.32040   0.78950   0.06070   Biso      1.000     C          -0.120834           
         C4        1.0000    0.78950   0.46910   0.56070   Biso      1.000     C          -0.12082000000000001          
         C5        1.0000    0.10710   0.26110   0.78080   Biso      1.000     C          0.605204  
         C6        1.0000    0.84600   0.10710   0.28080   Biso      1.000     C          0.605202  
         C7        1.0000    0.20100   0.64720   0.77320   Biso      1.000     C          -0.083218           
         C8        1.0000    0.44620   0.79900   0.77320   Biso      1.000     C          -0.083217           
         C9        1.0000    0.67960   0.21050   0.56070   Biso      1.000     C          -0.120822           
         C10       1.0000    0.34920   0.03460   0.66050   Biso      1.000     C          -0.041881           
         C11       1.0000    0.08670   0.33900   0.66460   Biso      1.000     C          0.015833  
         C12       1.0000    0.89290   0.73890   0.28080   Biso      1.000     C          0.6052029999999999  
         C13       1.0000    0.91330   0.66100   0.16460   Biso      1.000     C          0.015834  
         C14       1.0000    0.03460   0.68540   0.16050   Biso      1.000     C          -0.041882           
         C15       1.0000    0.65080   0.96540   0.16050   Biso      1.000     C          -0.041882           
         C16       1.0000    0.25230   0.91330   0.66460   Biso      1.000     C          0.015834  
         C17       1.0000    0.46910   0.67960   0.06070   Biso      1.000     C          -0.12084  
         C18       1.0000    0.64720   0.44620   0.27320   Biso      1.000     C          -0.08314400000000001          
         C19       1.0000    0.73890   0.84600   0.78080   Biso      1.000     C          0.605206  
         C20       1.0000    0.33900   0.25230   0.16460   Biso      1.000     C          0.015835  
         C21       1.0000    0.15400   0.89290   0.78080   Biso      1.000     C          0.6052029999999999  
         C22       1.0000    0.66100   0.74770   0.66460   Biso      1.000     C          0.015832  
         C23       1.0000    0.96540   0.31460   0.66050   Biso      1.000     C          -0.041881           
         C24       1.0000    0.26110   0.15400   0.28080   Biso      1.000     C          0.605202  
         C25       1.0000    0.55380   0.20100   0.27320   Biso      1.000     C          -0.083205           
         C26       1.0000    0.35280   0.55380   0.77320   Biso      1.000     C          -0.083148           
         C27       1.0000    0.53090   0.32040   0.56070   Biso      1.000     C          -0.12082000000000001          
         C28       1.0000    0.68540   0.65080   0.66050   Biso      1.000     C          -0.041881           
         C29       1.0000    0.31460   0.34920   0.16050   Biso      1.000     C          -0.041882           
         C30       1.0000    0.79900   0.35280   0.27320   Biso      1.000     C          -0.083207           
         Cr1       1.0000    0.33333   0.66667   0.92350   Biso      1.000     Cr          0.6188279999999999  
         Cr2       1.0000    0.66667   0.33333   0.42350   Biso      1.000     Cr          0.618863  
         H1        1.0000    0.54500   0.98370   0.30340   Biso      1.000     H          0.310077  
         H2        1.0000    0.28410   0.86760   0.70810   Biso      1.000     H          0.08582999999999999           
         H3        1.0000    0.34690   0.39360   0.06110   Biso      1.000     H          0.09479   
         H4        1.0000    0.43870   0.45500   0.30340   Biso      1.000     H          0.310078  
         H5        1.0000    0.19610   0.91690   0.44110   Biso      1.000     H          0.329086  
         H6        1.0000    0.34620   0.48020   0.29790   Biso      1.000     H          0.312894  
         H7        1.0000    0.98370   0.43870   0.80340   Biso      1.000     H          0.310078  
         H8        1.0000    0.25410   0.85040   0.44550   Biso      1.000     H          0.313131  
         H9        1.0000    0.41650   0.28410   0.20810   Biso      1.000     H          0.08583400000000001           
         H10       1.0000    0.27920   0.19610   0.94110   Biso      1.000     H          0.329092  
         H11       1.0000    0.59630   0.74590   0.44550   Biso      1.000     H          0.313133  
         H12       1.0000    0.72080   0.80390   0.44110   Biso      1.000     H          0.329088  
         H13       1.0000    0.40370   0.25410   0.94550   Biso      1.000     H          0.31314000000000003           
         H14       1.0000    0.58350   0.71590   0.70810   Biso      1.000     H          0.08582999999999999           
         H15       1.0000    0.95330   0.34690   0.56110   Biso      1.000     H          0.094786  
         H16       1.0000    0.65380   0.51980   0.79790   Biso      1.000     H          0.312892  
         H17       1.0000    0.56130   0.54500   0.80340   Biso      1.000     H          0.310078  
         H18       1.0000    0.91420   0.23280   0.65750   Biso      1.000     H          0.1076    
         H19       1.0000    0.08580   0.76720   0.15750   Biso      1.000     H          0.107601  
         H20       1.0000    0.04670   0.65310   0.06110   Biso      1.000     H          0.094788  
         H21       1.0000    0.23280   0.31860   0.15750   Biso      1.000     H          0.107601  
         H22       1.0000    0.01630   0.56130   0.30340   Biso      1.000     H          0.310077  
         H23       1.0000    0.71590   0.13240   0.20810   Biso      1.000     H          0.085833  
         H24       1.0000    0.60640   0.95330   0.06110   Biso      1.000     H          0.094788  
         H25       1.0000    0.68140   0.91420   0.15750   Biso      1.000     H          0.107602  
         H26       1.0000    0.65310   0.60640   0.56110   Biso      1.000     H          0.094788  
         H27       1.0000    0.80390   0.08310   0.94110   Biso      1.000     H          0.329092  
         H28       1.0000    0.31860   0.08580   0.65750   Biso      1.000     H          0.107599  
         H29       1.0000    0.39360   0.04670   0.56110   Biso      1.000     H          0.094786  
         H30       1.0000    0.74590   0.14960   0.94550   Biso      1.000     H          0.313138  
         H31       1.0000    0.51980   0.86600   0.29790   Biso      1.000     H          0.312893  
         H32       1.0000    0.14960   0.40370   0.44550   Biso      1.000     H          0.313131  
         H33       1.0000    0.13240   0.41650   0.70810   Biso      1.000     H          0.085828  
         H34       1.0000    0.45500   0.01630   0.80340   Biso      1.000     H          0.310078  
         H35       1.0000    0.85040   0.59630   0.94550   Biso      1.000     H          0.313138  
         H36       1.0000    0.91690   0.72080   0.94110   Biso      1.000     H          0.32909099999999997           
         H37       1.0000    0.86600   0.34620   0.79790   Biso      1.000     H          0.312893  
         H38       1.0000    0.86760   0.58350   0.20810   Biso      1.000     H          0.085832  
         H39       1.0000    0.48020   0.13400   0.79790   Biso      1.000     H          0.312892  
         H40       1.0000    0.13400   0.65380   0.29790   Biso      1.000     H          0.312893  
         H41       1.0000    0.08310   0.27920   0.44110   Biso      1.000     H          0.329086  
         H42       1.0000    0.76720   0.68140   0.65750   Biso      1.000     H          0.107601  
         Mn1       1.0000    0.96388   0.29530   0.04425   Biso      1.000     Mn          0.8973540000000001  
         Mn2       1.0000    0.33142   0.03612   0.04425   Biso      1.000     Mn          0.897351  
         Mn3       1.0000    0.29530   0.33142   0.54425   Biso      1.000     Mn          0.8973450000000001  
         Mn4       1.0000    0.70470   0.66858   0.04425   Biso      1.000     Mn          0.897344  
         Mn5       1.0000    0.03612   0.70470   0.54425   Biso      1.000     Mn          0.8973469999999999  
         Mn6       1.0000    0.66858   0.96388   0.54425   Biso      1.000     Mn          0.8973459999999999  
         N1        1.0000    0.93900   0.36240   0.80470   Biso      1.000     N          -0.63715  
         N2        1.0000    0.45120   0.31850   0.61160   Biso      1.000     N          -0.342956           
         N3        1.0000    0.13350   0.33970   0.50050   Biso      1.000     N          -0.654453           
         N4        1.0000    0.79380   0.13350   0.00050   Biso      1.000     N          -0.654432           
         N5        1.0000    0.36240   0.42340   0.30470   Biso      1.000     N          -0.637154           
         N6        1.0000    0.57660   0.93900   0.30470   Biso      1.000     N          -0.637153           
         N7        1.0000    0.68150   0.13270   0.61160   Biso      1.000     N          -0.342955           
         N8        1.0000    0.63740   0.50680   0.19020   Biso      1.000     N          -0.348166           
         N9        1.0000    0.50680   0.86940   0.69020   Biso      1.000     N          -0.348098           
         N10       1.0000    0.49320   0.13060   0.19020   Biso      1.000     N          -0.348138           
         N11       1.0000    0.31850   0.86730   0.11160   Biso      1.000     N          -0.342918           
         N12       1.0000    0.33970   0.20620   0.00050   Biso      1.000     N          -0.654432           
         N13       1.0000    0.86650   0.66030   0.00050   Biso      1.000     N          -0.654433           
         N14       1.0000    0.06100   0.63760   0.30470   Biso      1.000     N          -0.637151           
         N15       1.0000    0.42340   0.06100   0.80470   Biso      1.000     N          -0.637149           
         N16       1.0000    0.86730   0.54880   0.61160   Biso      1.000     N          -0.342958           
         N17       1.0000    0.13060   0.63740   0.69020   Biso      1.000     N          -0.348102           
         N18       1.0000    0.13270   0.45120   0.11160   Biso      1.000     N          -0.34291900000000003          
         N19       1.0000    0.20620   0.86650   0.50050   Biso      1.000     N          -0.654452           
         N20       1.0000    0.66030   0.79380   0.50050   Biso      1.000     N          -0.654454           
         N21       1.0000    0.86940   0.36260   0.19020   Biso      1.000     N          -0.34814  
         N22       1.0000    0.63760   0.57660   0.80470   Biso      1.000     N          -0.637152           
         N23       1.0000    0.54880   0.68150   0.11160   Biso      1.000     N          -0.342918           
         N24       1.0000    0.36260   0.49320   0.69020   Biso      1.000     N          -0.34813  
         O1        1.0000    0.22640   0.17630   0.40750   Biso      1.000     O          -0.519387           
         O2        1.0000    0.23790   0.05410   0.24430   Biso      1.000     O          -0.5301100000000001           
         O3        1.0000    0.17630   0.94990   0.90750   Biso      1.000     O          -0.519416           
         O4        1.0000    0.94590   0.18380   0.24430   Biso      1.000     O          -0.530109           
         O5        1.0000    0.18380   0.23790   0.74430   Biso      1.000     O          -0.530125           
         O6        1.0000    0.94990   0.77360   0.40750   Biso      1.000     O          -0.5193909999999999           
         O7        1.0000    0.81620   0.76210   0.24430   Biso      1.000     O          -0.5301130000000001           
         O8        1.0000    0.77360   0.82370   0.90750   Biso      1.000     O          -0.519422           
         O9        1.0000    0.76210   0.94590   0.74430   Biso      1.000     O          -0.530127           
         O10       1.0000    0.05410   0.81620   0.74430   Biso      1.000     O          -0.53012  
         O11       1.0000    0.82370   0.05010   0.40750   Biso      1.000     O          -0.519386           
         O12       1.0000    0.05010   0.22640   0.90750   Biso      1.000     O          -0.51942 