
##########################################################################
#               Crystallographic Information Format file
#               Produced by PyCifRW module
#
#  This is a CIF file.  CIF has been adopted by the International
#  Union of Crystallography as the standard for data archiving and
#  transmission.
#
#  For information on this file format, follow the CIF links at
#  http://www.iucr.org
##########################################################################

data_image0

_cell_length_a                          10.7298
_cell_length_b                          11.9079
_cell_length_c                          14.7678
_cell_angle_alpha                       73.057
_cell_angle_beta                        71.528
_cell_angle_gamma                       66.456
_symmetry_space_group_name_H-M          'P 1'
_symmetry_int_tables_number             1
loop_
  _symmetry_equiv_pos_as_xyz
         'x, y, z' 
loop_
  _atom_site_label
  _atom_site_occupancy
  _atom_site_fract_x
  _atom_site_fract_y
  _atom_site_fract_z
  _atom_site_thermal_displace_type
  _atom_site_B_iso_or_equiv
  _atom_site_type_symbol
  _atom_site_charge
         C1        1.0000    0.80740   0.49680   0.00850   Biso      1.000     C          -0.095976           
         C2        1.0000    0.97240   0.25700   0.08270   Biso      1.000     C          -0.095024           
         C3        1.0000    0.43360   0.37110   0.35280   Biso      1.000     C          -0.089826           
         C4        1.0000    0.57030   0.34250   0.29680   Biso      1.000     C          -0.092225           
         C5        1.0000    0.87740   0.04370   0.26420   Biso      1.000     C          -0.10416900000000001          
         C6        1.0000    0.90730   0.42020   0.94570   Biso      1.000     C          0.017161000000000003          
         C7        1.0000    0.92980   0.46280   0.83740   Biso      1.000     C          0.580277  
         C8        1.0000    0.07710   0.08670   0.70730   Biso      1.000     C          -0.093127           
         C9        1.0000    0.99050   0.30190   0.98260   Biso      1.000     C          -0.10273  
         C10       1.0000    0.00860   0.85630   0.35850   Biso      1.000     C          -0.008971999999999999         
         C11       1.0000    0.05540   0.92690   0.39140   Biso      1.000     C          -0.10132999999999999          
         C12       1.0000    0.92290   0.91330   0.29270   Biso      1.000     C          -0.093128           
         C13       1.0000    0.04490   0.71760   0.39780   Biso      1.000     C          0.637412  
         C14       1.0000    0.26060   0.41270   0.51100   Biso      1.000     C          0.6205470000000001  
         C15       1.0000    0.79120   0.45480   0.10900   Biso      1.000     C          -0.073906           
         C16       1.0000    0.12840   0.66570   0.85440   Biso      1.000     C          -0.148239           
         C17       1.0000    0.48390   0.64150   0.50860   Biso      1.000     C          -0.088025           
         C18       1.0000    0.07600   0.88650   0.70130   Biso      1.000     C          -0.141266           
         C19       1.0000    0.32100   0.67500   0.66210   Biso      1.000     C          -0.130939           
         C20       1.0000    0.98490   0.94490   0.63960   Biso      1.000     C          -0.084924           
         C21       1.0000    0.34810   0.66760   0.56470   Biso      1.000     C          -0.071761           
         C22       1.0000    0.59400   0.62100   0.55000   Biso      1.000     C          -0.016741           
         C23       1.0000    0.02760   0.74300   0.91730   Biso      1.000     C          -0.095023           
         C24       1.0000    0.56640   0.62890   0.64720   Biso      1.000     C          -0.089826           
         C25       1.0000    0.42970   0.65750   0.70320   Biso      1.000     C          -0.092225           
         C26       1.0000    0.12260   0.95630   0.73580   Biso      1.000     C          -0.10416900000000001          
         C27       1.0000    0.09270   0.57980   0.05430   Biso      1.000     C          0.017161000000000003          
         C28       1.0000    0.07020   0.53720   0.16260   Biso      1.000     C          0.580277  
         C29       1.0000    0.19260   0.50320   0.99150   Biso      1.000     C          -0.095976           
         C30       1.0000    0.00950   0.69810   0.01740   Biso      1.000     C          -0.10273  
         C31       1.0000    0.40600   0.37900   0.45000   Biso      1.000     C          -0.016741           
         C32       1.0000    0.65190   0.33240   0.43530   Biso      1.000     C          -0.071761           
         C33       1.0000    0.01510   0.05510   0.36040   Biso      1.000     C          -0.08492899999999999          
         C34       1.0000    0.67900   0.32500   0.33790   Biso      1.000     C          -0.130939           
         C35       1.0000    0.20880   0.54520   0.89100   Biso      1.000     C          -0.073906           
         C36       1.0000    0.73940   0.58730   0.48900   Biso      1.000     C          0.620546  
         C37       1.0000    0.95510   0.28240   0.60220   Biso      1.000     C          0.637412  
         C38       1.0000    0.99140   0.14370   0.64150   Biso      1.000     C          -0.008971999999999999         
         C39       1.0000    0.94460   0.07310   0.60860   Biso      1.000     C          -0.10132999999999999          
         C40       1.0000    0.92400   0.11350   0.29870   Biso      1.000     C          -0.141261           
         C41       1.0000    0.51610   0.35850   0.49140   Biso      1.000     C          -0.088026           
         C42       1.0000    0.87160   0.33430   0.14560   Biso      1.000     C          -0.148238           
         H1        1.0000    0.88460   0.11300   0.56470   Biso      1.000     H          0.116578  
         H2        1.0000    0.49770   0.36260   0.55780   Biso      1.000     H          0.127128  
         H3        1.0000    0.04980   0.10280   0.38140   Biso      1.000     H          0.114554  
         H4        1.0000    0.72630   0.31960   0.46320   Biso      1.000     H          0.11899900000000001           
         H5        1.0000    0.02780   0.17530   0.10750   Biso      1.000     H          0.112206  
         H6        1.0000    0.35910   0.38530   0.32460   Biso      1.000     H          0.108243  
         H7        1.0000    0.58940   0.33490   0.23110   Biso      1.000     H          0.11431300000000001           
         H8        1.0000    0.81520   0.08410   0.22180   Biso      1.000     H          0.113061  
         H9        1.0000    0.75030   0.57750   0.98340   Biso      1.000     H          0.12430699999999999           
         H10       1.0000    0.10460   0.13560   0.73280   Biso      1.000     H          0.13334100000000002           
         H11       1.0000    0.06060   0.25090   0.93920   Biso      1.000     H          0.124696  
         H12       1.0000    0.89540   0.86440   0.26720   Biso      1.000     H          0.13334100000000002           
         H13       1.0000    0.27440   0.49180   0.84770   Biso      1.000     H          0.120065  
         H14       1.0000    0.50230   0.63740   0.44220   Biso      1.000     H          0.127128  
         H15       1.0000    0.95020   0.89720   0.61860   Biso      1.000     H          0.114553  
         H16       1.0000    0.27370   0.68040   0.53680   Biso      1.000     H          0.11899900000000001           
         H17       1.0000    0.97220   0.82470   0.89250   Biso      1.000     H          0.112206  
         H18       1.0000    0.64090   0.61470   0.67540   Biso      1.000     H          0.108243  
         H19       1.0000    0.41060   0.66510   0.76890   Biso      1.000     H          0.11431300000000001           
         H20       1.0000    0.18480   0.91590   0.77820   Biso      1.000     H          0.113061  
         H21       1.0000    0.24970   0.42250   0.01660   Biso      1.000     H          0.12430699999999999           
         H22       1.0000    0.93940   0.74910   0.06080   Biso      1.000     H          0.124696  
         H23       1.0000    0.11540   0.88700   0.43530   Biso      1.000     H          0.116578  
         H24       1.0000    0.72560   0.50820   0.15230   Biso      1.000     H          0.120065  
         Nd1       1.0000    0.01495   0.45055   0.37171   Biso      1.000     Nd          2.119591  
         Nd2       1.0000    0.98505   0.54945   0.62829   Biso      1.000     Nd          2.119591  
         O1        1.0000    0.15940   0.42290   0.47750   Biso      1.000     O          -0.772726           
         O2        1.0000    0.95750   0.34850   0.65380   Biso      1.000     O          -0.645066           
         O3        1.0000    0.17340   0.45960   0.19970   Biso      1.000     O          -0.68442  
         O4        1.0000    0.92760   0.32010   0.51930   Biso      1.000     O          -0.681425           
         O5        1.0000    0.76130   0.56610   0.40530   Biso      1.000     O          -0.582145           
         O6        1.0000    0.95110   0.58130   0.21460   Biso      1.000     O          -0.608628           
         O7        1.0000    0.93910   0.32970   0.31110   Biso      1.000     O          -0.765456           
         O8        1.0000    0.06090   0.67030   0.68890   Biso      1.000     O          -0.765456           
         O9        1.0000    0.04250   0.65150   0.34620   Biso      1.000     O          -0.645066           
         O10       1.0000    0.82660   0.54040   0.80030   Biso      1.000     O          -0.68442  
         O11       1.0000    0.07240   0.67990   0.48070   Biso      1.000     O          -0.681425           
         O12       1.0000    0.23870   0.43390   0.59470   Biso      1.000     O          -0.582146           
         O13       1.0000    0.04890   0.41870   0.78540   Biso      1.000     O          -0.608628           
         O14       1.0000    0.84060   0.57710   0.52250   Biso      1.000     O          -0.772726           
         P1        1.0000    0.85928   0.28190   0.27352   Biso      1.000     P          0.876567  
         P2        1.0000    0.14072   0.71810   0.72648   Biso      1.000     P          0.876568 