
##########################################################################
#               Crystallographic Information Format file
#               Produced by PyCifRW module
#
#  This is a CIF file.  CIF has been adopted by the International
#  Union of Crystallography as the standard for data archiving and
#  transmission.
#
#  For information on this file format, follow the CIF links at
#  http://www.iucr.org
##########################################################################

data_image0

_cell_length_a                          10.724
_cell_length_b                          11.831
_cell_length_c                          14.593
_cell_angle_alpha                       73.66
_cell_angle_beta                        71.98
_cell_angle_gamma                       66.9
_symmetry_space_group_name_H-M          'P 1'
_symmetry_int_tables_number             1
loop_
  _symmetry_equiv_pos_as_xyz
         'x, y, z' 
loop_
  _atom_site_label
  _atom_site_occupancy
  _atom_site_fract_x
  _atom_site_fract_y
  _atom_site_fract_z
  _atom_site_thermal_displace_type
  _atom_site_B_iso_or_equiv
  _atom_site_type_symbol
  _atom_site_charge
         C1        1.0000    0.80710   0.49600   0.00770   Biso      1.000     C          -0.100543           
         C2        1.0000    0.25840   0.41500   0.50720   Biso      1.000     C          0.569735  
         C3        1.0000    0.03870   0.71710   0.39770   Biso      1.000     C          0.5749350000000001  
         C4        1.0000    0.91790   0.91240   0.29180   Biso      1.000     C          -0.092218           
         C5        1.0000    0.05280   0.92510   0.39110   Biso      1.000     C          -0.099936           
         C6        1.0000    0.00430   0.85400   0.35790   Biso      1.000     C          -0.009569           
         C7        1.0000    0.87130   0.33250   0.14430   Biso      1.000     C          -0.129193           
         C8        1.0000    0.51180   0.36070   0.49080   Biso      1.000     C          -0.092918           
         C9        1.0000    0.92180   0.11310   0.29730   Biso      1.000     C          -0.13731300000000002          
         C10       1.0000    0.67750   0.32240   0.33730   Biso      1.000     C          -0.129029           
         C11       1.0000    0.01220   0.05430   0.36110   Biso      1.000     C          -0.079822           
         C12       1.0000    0.64710   0.33320   0.43580   Biso      1.000     C          -0.07064  
         C13       1.0000    0.40480   0.37820   0.44860   Biso      1.000     C          -0.013125           
         C14       1.0000    0.97410   0.25920   0.07970   Biso      1.000     C          -0.08983300000000001          
         C15       1.0000    0.43280   0.36870   0.35070   Biso      1.000     C          -0.095835           
         C16       1.0000    0.56960   0.33820   0.29450   Biso      1.000     C          -0.100845           
         C17       1.0000    0.87450   0.04120   0.26310   Biso      1.000     C          -0.100323           
         C18       1.0000    0.90920   0.42050   0.94380   Biso      1.000     C          0.008190000000000001          
         C19       1.0000    0.79090   0.45220   0.10760   Biso      1.000     C          -0.070953           
         C20       1.0000    0.12870   0.66750   0.85570   Biso      1.000     C          -0.131683           
         C21       1.0000    0.48820   0.63930   0.50920   Biso      1.000     C          -0.094231           
         C22       1.0000    0.07820   0.88690   0.70270   Biso      1.000     C          -0.139035           
         C23       1.0000    0.20910   0.54780   0.89240   Biso      1.000     C          -0.072852           
         C24       1.0000    0.74160   0.58500   0.49280   Biso      1.000     C          0.570516  
         C25       1.0000    0.96130   0.28290   0.60230   Biso      1.000     C          0.577937  
         C26       1.0000    0.08210   0.08760   0.70820   Biso      1.000     C          -0.09275800000000001          
         C27       1.0000    0.94720   0.07490   0.60890   Biso      1.000     C          -0.102876           
         C28       1.0000    0.99570   0.14600   0.64210   Biso      1.000     C          -0.010208           
         C29       1.0000    0.00710   0.69650   0.01930   Biso      1.000     C          -0.100628           
         C30       1.0000    0.19290   0.50400   0.99230   Biso      1.000     C          -0.104103           
         C31       1.0000    0.93280   0.46470   0.83460   Biso      1.000     C          0.540092  
         C32       1.0000    0.06720   0.53530   0.16540   Biso      1.000     C          0.5426350000000001  
         C33       1.0000    0.12550   0.95880   0.73690   Biso      1.000     C          -0.10090700000000001          
         C34       1.0000    0.43040   0.66180   0.70550   Biso      1.000     C          -0.100844           
         C35       1.0000    0.56720   0.63130   0.64930   Biso      1.000     C          -0.09669  
         C36       1.0000    0.02590   0.74080   0.92030   Biso      1.000     C          -0.090429           
         C37       1.0000    0.59520   0.62180   0.55140   Biso      1.000     C          -0.013878999999999999         
         C38       1.0000    0.35290   0.66680   0.56420   Biso      1.000     C          -0.07242  
         C39       1.0000    0.98780   0.94570   0.63890   Biso      1.000     C          -0.08053099999999999          
         C40       1.0000    0.32250   0.67760   0.66270   Biso      1.000     C          -0.13084300000000001          
         C41       1.0000    0.09080   0.57950   0.05620   Biso      1.000     C          0.008297  
         C42       1.0000    0.99290   0.30350   0.98070   Biso      1.000     C          -0.10035  
         Eu1       1.0000    0.01243   0.44879   0.37223   Biso      1.000     Eu          1.351544  
         Eu2       1.0000    0.98757   0.55121   0.62777   Biso      1.000     Eu          1.353008  
         H1        1.0000    0.27590   0.49560   0.84820   Biso      1.000     H          0.11801700000000001           
         H2        1.0000    0.49230   0.36770   0.55740   Biso      1.000     H          0.123494  
         H3        1.0000    0.04580   0.10240   0.38380   Biso      1.000     H          0.119237  
         H4        1.0000    0.72010   0.32140   0.46500   Biso      1.000     H          0.11954000000000001           
         H5        1.0000    0.35850   0.38320   0.32180   Biso      1.000     H          0.12324600000000001           
         H6        1.0000    0.58910   0.32820   0.22860   Biso      1.000     H          0.113927  
         H7        1.0000    0.81260   0.08090   0.22010   Biso      1.000     H          0.112594  
         H8        1.0000    0.74930   0.57650   0.98310   Biso      1.000     H          0.125692  
         H9        1.0000    0.06420   0.25320   0.93680   Biso      1.000     H          0.1226    
         H10       1.0000    0.11410   0.88510   0.43460   Biso      1.000     H          0.118022  
         H11       1.0000    0.88870   0.86370   0.26630   Biso      1.000     H          0.12759700000000002           
         H12       1.0000    0.03140   0.17830   0.10410   Biso      1.000     H          0.11175999999999998           
         H13       1.0000    0.50770   0.63230   0.44260   Biso      1.000     H          0.12282799999999999           
         H14       1.0000    0.72410   0.50440   0.15180   Biso      1.000     H          0.118796  
         H15       1.0000    0.88590   0.11490   0.56540   Biso      1.000     H          0.11721300000000001           
         H16       1.0000    0.93580   0.74680   0.06320   Biso      1.000     H          0.122406  
         H17       1.0000    0.25070   0.42350   0.01690   Biso      1.000     H          0.125142  
         H18       1.0000    0.18740   0.91910   0.77990   Biso      1.000     H          0.112305  
         H19       1.0000    0.11130   0.13630   0.73370   Biso      1.000     H          0.126755  
         H20       1.0000    0.64150   0.61680   0.67820   Biso      1.000     H          0.12334400000000001           
         H21       1.0000    0.96860   0.82170   0.89590   Biso      1.000     H          0.11161199999999999           
         H22       1.0000    0.27990   0.67860   0.53500   Biso      1.000     H          0.11908900000000001           
         H23       1.0000    0.95420   0.89760   0.61620   Biso      1.000     H          0.118646  
         H24       1.0000    0.41090   0.67180   0.77140   Biso      1.000     H          0.113657  
         O1        1.0000    0.84030   0.57500   0.52850   Biso      1.000     O          -0.594912           
         O2        1.0000    0.96650   0.35120   0.65270   Biso      1.000     O          -0.51761  
         O3        1.0000    0.16780   0.45900   0.20370   Biso      1.000     O          -0.53957  
         O4        1.0000    0.93270   0.31940   0.51770   Biso      1.000     O          -0.524648           
         O5        1.0000    0.76430   0.56070   0.40950   Biso      1.000     O          -0.48264799999999997          
         O6        1.0000    0.94680   0.57520   0.21640   Biso      1.000     O          -0.483854           
         O7        1.0000    0.93590   0.32900   0.31300   Biso      1.000     O          -0.684481           
         O8        1.0000    0.83220   0.54100   0.79630   Biso      1.000     O          -0.543175           
         O9        1.0000    0.03350   0.64880   0.34730   Biso      1.000     O          -0.49286499999999994          
         O10       1.0000    0.06730   0.68060   0.48230   Biso      1.000     O          -0.527353           
         O11       1.0000    0.23570   0.43930   0.59050   Biso      1.000     O          -0.48125500000000004          
         O12       1.0000    0.05320   0.42480   0.78360   Biso      1.000     O          -0.45201099999999994          
         O13       1.0000    0.15970   0.42500   0.47150   Biso      1.000     O          -0.58537  
         O14       1.0000    0.06410   0.67100   0.68700   Biso      1.000     O          -0.6888340000000001           
         P1        1.0000    0.85726   0.28055   0.27380   Biso      1.000     P          0.840269  
         P2        1.0000    0.14274   0.71945   0.72620   Biso      1.000     P          0.8412700000000001 