
##########################################################################
#               Crystallographic Information Format file
#               Produced by PyCifRW module
#
#  This is a CIF file.  CIF has been adopted by the International
#  Union of Crystallography as the standard for data archiving and
#  transmission.
#
#  For information on this file format, follow the CIF links at
#  http://www.iucr.org
##########################################################################

data_image0

_cell_length_a                          10.7961
_cell_length_b                          11.8333
_cell_length_c                          14.5779
_cell_angle_alpha                       73.788
_cell_angle_beta                        72.083
_cell_angle_gamma                       67.049
_symmetry_space_group_name_H-M          'P 1'
_symmetry_int_tables_number             1
loop_
  _symmetry_equiv_pos_as_xyz
         'x, y, z' 
loop_
  _atom_site_label
  _atom_site_occupancy
  _atom_site_fract_x
  _atom_site_fract_y
  _atom_site_fract_z
  _atom_site_thermal_displace_type
  _atom_site_B_iso_or_equiv
  _atom_site_type_symbol
  _atom_site_charge
         C1        1.0000    0.80720   0.49390   0.00700   Biso      1.000     C          -0.10000099999999999          
         C2        1.0000    0.25700   0.41470   0.50440   Biso      1.000     C          0.633271  
         C3        1.0000    0.03470   0.71610   0.39830   Biso      1.000     C          0.64662   
         C4        1.0000    0.91590   0.91190   0.29120   Biso      1.000     C          -0.095085           
         C5        1.0000    0.04790   0.92500   0.39140   Biso      1.000     C          -0.10361600000000001          
         C6        1.0000    0.00080   0.85420   0.35790   Biso      1.000     C          -0.009625           
         C7        1.0000    0.86830   0.33300   0.14480   Biso      1.000     C          -0.147477           
         C8        1.0000    0.50890   0.36160   0.48850   Biso      1.000     C          -0.09550399999999999          
         C9        1.0000    0.91890   0.11190   0.29770   Biso      1.000     C          -0.150777           
         C10       1.0000    0.67490   0.32150   0.33700   Biso      1.000     C          -0.136737           
         C11       1.0000    0.00890   0.05420   0.36050   Biso      1.000     C          -0.082356           
         C12       1.0000    0.64480   0.33440   0.43440   Biso      1.000     C          -0.06854500000000001          
         C13       1.0000    0.40360   0.37800   0.44540   Biso      1.000     C          -0.013075999999999999         
         C14       1.0000    0.97530   0.26110   0.08120   Biso      1.000     C          -0.092127           
         C15       1.0000    0.43420   0.36510   0.34820   Biso      1.000     C          -0.096164           
         C16       1.0000    0.57020   0.33560   0.29440   Biso      1.000     C          -0.08934600000000001          
         C17       1.0000    0.87260   0.04040   0.26270   Biso      1.000     C          -0.09523999999999999          
         C18       1.0000    0.91190   0.42090   0.94320   Biso      1.000     C          0.015719999999999998          
         C19       1.0000    0.78790   0.45030   0.10800   Biso      1.000     C          -0.072702           
         C20       1.0000    0.13170   0.66700   0.85520   Biso      1.000     C          -0.147478           
         C21       1.0000    0.49110   0.63840   0.51150   Biso      1.000     C          -0.09550399999999999          
         C22       1.0000    0.08110   0.88810   0.70230   Biso      1.000     C          -0.150777           
         C23       1.0000    0.21210   0.54970   0.89200   Biso      1.000     C          -0.072702           
         C24       1.0000    0.74300   0.58530   0.49560   Biso      1.000     C          0.63327   
         C25       1.0000    0.96530   0.28390   0.60170   Biso      1.000     C          0.64662   
         C26       1.0000    0.08410   0.08810   0.70880   Biso      1.000     C          -0.095086           
         C27       1.0000    0.95210   0.07500   0.60860   Biso      1.000     C          -0.10361600000000001          
         C28       1.0000    0.99920   0.14580   0.64210   Biso      1.000     C          -0.009625           
         C29       1.0000    0.00250   0.69390   0.01930   Biso      1.000     C          -0.1019   
         C30       1.0000    0.19280   0.50610   0.99300   Biso      1.000     C          -0.10000099999999999          
         C31       1.0000    0.93590   0.46560   0.83420   Biso      1.000     C          0.58317   
         C32       1.0000    0.06410   0.53440   0.16580   Biso      1.000     C          0.58317   
         C33       1.0000    0.12740   0.95960   0.73730   Biso      1.000     C          -0.09523999999999999          
         C34       1.0000    0.42980   0.66440   0.70560   Biso      1.000     C          -0.089347           
         C35       1.0000    0.56580   0.63490   0.65180   Biso      1.000     C          -0.096164           
         C36       1.0000    0.02470   0.73890   0.91880   Biso      1.000     C          -0.092126           
         C37       1.0000    0.59640   0.62200   0.55460   Biso      1.000     C          -0.013075999999999999         
         C38       1.0000    0.35520   0.66560   0.56560   Biso      1.000     C          -0.06854500000000001          
         C39       1.0000    0.99110   0.94580   0.63950   Biso      1.000     C          -0.082356           
         C40       1.0000    0.32510   0.67850   0.66300   Biso      1.000     C          -0.136736           
         C41       1.0000    0.08810   0.57910   0.05680   Biso      1.000     C          0.015721000000000002          
         C42       1.0000    0.99750   0.30610   0.98070   Biso      1.000     C          -0.101898           
         Gd1       1.0000    0.01074   0.44771   0.37185   Biso      1.000     Gd          2.074348  
         Gd2       1.0000    0.98926   0.55229   0.62815   Biso      1.000     Gd          2.074348  
         H1        1.0000    0.28120   0.49810   0.84840   Biso      1.000     H          0.11719700000000001           
         H2        1.0000    0.48820   0.36890   0.55520   Biso      1.000     H          0.12628599999999998           
         H3        1.0000    0.04350   0.10230   0.38220   Biso      1.000     H          0.11454600000000001           
         H4        1.0000    0.71650   0.32480   0.46370   Biso      1.000     H          0.120495  
         H5        1.0000    0.36220   0.37640   0.31860   Biso      1.000     H          0.117444  
         H6        1.0000    0.59110   0.32520   0.22840   Biso      1.000     H          0.111292  
         H7        1.0000    0.81160   0.07990   0.21940   Biso      1.000     H          0.110943  
         H8        1.0000    0.74890   0.57340   0.98190   Biso      1.000     H          0.12361   
         H9        1.0000    0.07190   0.25760   0.93750   Biso      1.000     H          0.12397000000000001           
         H10       1.0000    0.10740   0.88540   0.43580   Biso      1.000     H          0.118452  
         H11       1.0000    0.88760   0.86300   0.26530   Biso      1.000     H          0.13228900000000002           
         H12       1.0000    0.03310   0.18140   0.10640   Biso      1.000     H          0.109301  
         H13       1.0000    0.51180   0.63110   0.44480   Biso      1.000     H          0.12628599999999998           
         H14       1.0000    0.71880   0.50190   0.15160   Biso      1.000     H          0.11719700000000001           
         H15       1.0000    0.89260   0.11460   0.56420   Biso      1.000     H          0.118452  
         H16       1.0000    0.92810   0.74240   0.06250   Biso      1.000     H          0.12397000000000001           
         H17       1.0000    0.25110   0.42660   0.01810   Biso      1.000     H          0.12361   
         H18       1.0000    0.18840   0.92010   0.78060   Biso      1.000     H          0.110943  
         H19       1.0000    0.11240   0.13700   0.73470   Biso      1.000     H          0.13228900000000002           
         H20       1.0000    0.63780   0.62360   0.68140   Biso      1.000     H          0.117444  
         H21       1.0000    0.96690   0.81860   0.89360   Biso      1.000     H          0.109301  
         H22       1.0000    0.28350   0.67520   0.53630   Biso      1.000     H          0.120495  
         H23       1.0000    0.95650   0.89770   0.61780   Biso      1.000     H          0.11454600000000001           
         H24       1.0000    0.40890   0.67480   0.77160   Biso      1.000     H          0.111292  
         O1        1.0000    0.83880   0.57530   0.53352   Biso      1.000     O          -0.759165           
         O2        1.0000    0.97280   0.35050   0.65197   Biso      1.000     O          -0.6381100000000001           
         O3        1.0000    0.16390   0.45880   0.20432   Biso      1.000     O          -0.6750079999999999           
         O4        1.0000    0.93440   0.31990   0.51880   Biso      1.000     O          -0.6838890000000001           
         O5        1.0000    0.76680   0.55920   0.41245   Biso      1.000     O          -0.5882689999999999           
         O6        1.0000    0.94330   0.57430   0.21636   Biso      1.000     O          -0.608229           
         O7        1.0000    0.93080   0.32870   0.31507   Biso      1.000     O          -0.756054           
         O8        1.0000    0.83610   0.54120   0.79568   Biso      1.000     O          -0.6750079999999999           
         O9        1.0000    0.02720   0.64950   0.34803   Biso      1.000     O          -0.6381100000000001           
         O10       1.0000    0.06560   0.68010   0.48120   Biso      1.000     O          -0.6838890000000001           
         O11       1.0000    0.23320   0.44080   0.58755   Biso      1.000     O          -0.5882689999999999           
         O12       1.0000    0.05670   0.42570   0.78364   Biso      1.000     O          -0.608229           
         O13       1.0000    0.16120   0.42470   0.46648   Biso      1.000     O          -0.759165           
         O14       1.0000    0.06920   0.67130   0.68493   Biso      1.000     O          -0.756054           
         P1        1.0000    0.85437   0.28033   0.27438   Biso      1.000     P          0.8800469999999999  
         P2        1.0000    0.14563   0.71967   0.72562   Biso      1.000     P          0.8800469999999999 