
##########################################################################
#               Crystallographic Information Format file
#               Produced by PyCifRW module
#
#  This is a CIF file.  CIF has been adopted by the International
#  Union of Crystallography as the standard for data archiving and
#  transmission.
#
#  For information on this file format, follow the CIF links at
#  http://www.iucr.org
##########################################################################

data_image0

_cell_length_a                          10.7459
_cell_length_b                          11.8655
_cell_length_c                          14.6752
_cell_angle_alpha                       73.267
_cell_angle_beta                        71.824
_cell_angle_gamma                       66.799
_symmetry_space_group_name_H-M          'P 1'
_symmetry_int_tables_number             1
loop_
  _symmetry_equiv_pos_as_xyz
         'x, y, z' 
loop_
  _atom_site_label
  _atom_site_occupancy
  _atom_site_fract_x
  _atom_site_fract_y
  _atom_site_fract_z
  _atom_site_thermal_displace_type
  _atom_site_B_iso_or_equiv
  _atom_site_type_symbol
  _atom_site_charge
         C1        1.0000    0.80690   0.49660   0.00830   Biso      1.000     C          -0.102377           
         C2        1.0000    0.87450   0.04260   0.26420   Biso      1.000     C          -0.095726           
         C3        1.0000    0.90830   0.42060   0.94500   Biso      1.000     C          0.019694999999999997          
         C4        1.0000    0.93020   0.46490   0.83590   Biso      1.000     C          0.579016  
         C5        1.0000    0.99240   0.30460   0.98180   Biso      1.000     C          -0.10147  
         C6        1.0000    0.00510   0.85540   0.35840   Biso      1.000     C          -0.011914           
         C7        1.0000    0.05280   0.92640   0.39110   Biso      1.000     C          -0.100614           
         C8        1.0000    0.91850   0.91380   0.29270   Biso      1.000     C          -0.092807           
         C9        1.0000    0.04080   0.71730   0.39780   Biso      1.000     C          0.645021  
         C10       1.0000    0.25830   0.41350   0.50880   Biso      1.000     C          0.628434  
         C11       1.0000    0.79020   0.45300   0.10810   Biso      1.000     C          -0.06942899999999999          
         C12       1.0000    0.13050   0.66590   0.85450   Biso      1.000     C          -0.150246           
         C13       1.0000    0.48700   0.63990   0.50970   Biso      1.000     C          -0.08900599999999999          
         C14       1.0000    0.07820   0.88630   0.70140   Biso      1.000     C          -0.150274           
         C15       1.0000    0.32380   0.67610   0.66200   Biso      1.000     C          -0.135198           
         C16       1.0000    0.98790   0.94510   0.63900   Biso      1.000     C          -0.081295           
         C17       1.0000    0.35210   0.66630   0.56430   Biso      1.000     C          -0.07227599999999999          
         C18       1.0000    0.59520   0.62140   0.55130   Biso      1.000     C          -0.012603           
         C19       1.0000    0.20980   0.54700   0.89190   Biso      1.000     C          -0.06943300000000001          
         C20       1.0000    0.74170   0.58650   0.49120   Biso      1.000     C          0.628433  
         C21       1.0000    0.95920   0.28270   0.60220   Biso      1.000     C          0.6450199999999999  
         C22       1.0000    0.08150   0.08620   0.70730   Biso      1.000     C          -0.09281  
         C23       1.0000    0.94720   0.07360   0.60890   Biso      1.000     C          -0.100616           
         C24       1.0000    0.99490   0.14460   0.64160   Biso      1.000     C          -0.011912           
         C25       1.0000    0.56950   0.34090   0.29610   Biso      1.000     C          -0.092086           
         C26       1.0000    0.00760   0.69540   0.01820   Biso      1.000     C          -0.10147300000000001          
         C27       1.0000    0.06980   0.53510   0.16410   Biso      1.000     C          0.579016  
         C28       1.0000    0.09170   0.57940   0.05500   Biso      1.000     C          0.019698  
         C29       1.0000    0.12550   0.95740   0.73580   Biso      1.000     C          -0.095724           
         C30       1.0000    0.43050   0.65910   0.70390   Biso      1.000     C          -0.092084           
         C31       1.0000    0.56780   0.63030   0.64830   Biso      1.000     C          -0.097242           
         C32       1.0000    0.02850   0.73900   0.91820   Biso      1.000     C          -0.090549           
         C33       1.0000    0.19310   0.50340   0.99170   Biso      1.000     C          -0.102374           
         C34       1.0000    0.97150   0.26100   0.08180   Biso      1.000     C          -0.09055099999999999          
         C35       1.0000    0.43220   0.36970   0.35170   Biso      1.000     C          -0.097242           
         C36       1.0000    0.64790   0.33370   0.43570   Biso      1.000     C          -0.072281           
         C37       1.0000    0.86950   0.33410   0.14550   Biso      1.000     C          -0.15024500000000002          
         C38       1.0000    0.51300   0.36010   0.49030   Biso      1.000     C          -0.089002           
         C39       1.0000    0.92180   0.11370   0.29860   Biso      1.000     C          -0.150273           
         C40       1.0000    0.40480   0.37860   0.44870   Biso      1.000     C          -0.012604           
         C41       1.0000    0.01210   0.05490   0.36100   Biso      1.000     C          -0.08129600000000001          
         C42       1.0000    0.67620   0.32390   0.33800   Biso      1.000     C          -0.135196           
         H1        1.0000    0.04610   0.10270   0.38310   Biso      1.000     H          0.111694  
         H2        1.0000    0.49380   0.36570   0.55690   Biso      1.000     H          0.12498599999999999           
         H3        1.0000    0.72120   0.32220   0.46430   Biso      1.000     H          0.12148800000000001           
         H4        1.0000    0.72320   0.50550   0.15160   Biso      1.000     H          0.115924  
         H5        1.0000    0.35840   0.38310   0.32300   Biso      1.000     H          0.114186  
         H6        1.0000    0.58920   0.33320   0.23000   Biso      1.000     H          0.114309  
         H7        1.0000    0.81250   0.08270   0.22150   Biso      1.000     H          0.112652  
         H8        1.0000    0.74990   0.57730   0.98330   Biso      1.000     H          0.125306  
         H9        1.0000    0.06460   0.25460   0.93860   Biso      1.000     H          0.124983  
         H10       1.0000    0.11380   0.88660   0.43460   Biso      1.000     H          0.11832899999999999           
         H11       1.0000    0.88960   0.86520   0.26750   Biso      1.000     H          0.131723  
         H12       1.0000    0.02780   0.17990   0.10680   Biso      1.000     H          0.10769300000000001           
         H13       1.0000    0.50620   0.63430   0.44310   Biso      1.000     H          0.12498599999999999           
         H14       1.0000    0.27880   0.67780   0.53570   Biso      1.000     H          0.12148800000000001           
         H15       1.0000    0.95390   0.89730   0.61690   Biso      1.000     H          0.111694  
         H16       1.0000    0.11040   0.13480   0.73250   Biso      1.000     H          0.131723  
         H17       1.0000    0.88620   0.11340   0.56540   Biso      1.000     H          0.11832899999999999           
         H18       1.0000    0.93540   0.74540   0.06140   Biso      1.000     H          0.124983  
         H19       1.0000    0.27680   0.49450   0.84840   Biso      1.000     H          0.115924  
         H20       1.0000    0.18750   0.91730   0.77850   Biso      1.000     H          0.112652  
         H21       1.0000    0.41080   0.66680   0.77000   Biso      1.000     H          0.114309  
         H22       1.0000    0.64160   0.61690   0.67700   Biso      1.000     H          0.114186  
         H23       1.0000    0.97220   0.82010   0.89320   Biso      1.000     H          0.10769300000000001           
         H24       1.0000    0.25010   0.42270   0.01670   Biso      1.000     H          0.125305  
         O1        1.0000    0.76380   0.56370   0.40789   Biso      1.000     O          -0.5889810000000001           
         O2        1.0000    0.15990   0.42430   0.47326   Biso      1.000     O          -0.772139           
         O3        1.0000    0.93060   0.31980   0.51873   Biso      1.000     O          -0.6917449999999999           
         O4        1.0000    0.17060   0.45850   0.20203   Biso      1.000     O          -0.677942           
         O5        1.0000    0.96330   0.34960   0.65304   Biso      1.000     O          -0.643153           
         O6        1.0000    0.94940   0.57710   0.21580   Biso      1.000     O          -0.615781           
         O7        1.0000    0.93510   0.33010   0.31276   Biso      1.000     O          -0.765183           
         O8        1.0000    0.03670   0.65040   0.34696   Biso      1.000     O          -0.643153           
         O9        1.0000    0.06490   0.66990   0.68724   Biso      1.000     O          -0.765183           
         O10       1.0000    0.06940   0.68020   0.48127   Biso      1.000     O          -0.6917449999999999           
         O11       1.0000    0.23620   0.43630   0.59211   Biso      1.000     O          -0.5889810000000001           
         O12       1.0000    0.05060   0.42290   0.78420   Biso      1.000     O          -0.615781           
         O13       1.0000    0.84010   0.57570   0.52674   Biso      1.000     O          -0.772139           
         O14       1.0000    0.82940   0.54150   0.79797   Biso      1.000     O          -0.677942           
         P1        1.0000    0.14337   0.71804   0.72571   Biso      1.000     P          0.883599  
         P2        1.0000    0.85663   0.28196   0.27429   Biso      1.000     P          0.883599  
         Sm1       1.0000    0.98702   0.55031   0.62791   Biso      1.000     Sm          2.120997  
         Sm2       1.0000    0.01298   0.44969   0.37209   Biso      1.000     Sm          2.120997 