
##########################################################################
#               Crystallographic Information Format file
#               Produced by PyCifRW module
#
#  This is a CIF file.  CIF has been adopted by the International
#  Union of Crystallography as the standard for data archiving and
#  transmission.
#
#  For information on this file format, follow the CIF links at
#  http://www.iucr.org
##########################################################################

data_image0

_cell_length_a                          12.2731
_cell_length_b                          12.2731
_cell_length_c                          25.135
_cell_angle_alpha                       90
_cell_angle_beta                        90
_cell_angle_gamma                       90
_symmetry_space_group_name_H-M          'P 1'
_symmetry_int_tables_number             1
loop_
  _symmetry_equiv_pos_as_xyz
         'x, y, z' 
loop_
  _atom_site_label
  _atom_site_occupancy
  _atom_site_fract_x
  _atom_site_fract_y
  _atom_site_fract_z
  _atom_site_thermal_displace_type
  _atom_site_B_iso_or_equiv
  _atom_site_type_symbol
  _atom_site_charge
         C1        1.0000    0.75000   0.25000   0.17250   Biso      1.000     C          0.084451  
         C2        1.0000    0.68470   0.48970   0.05340   Biso      1.000     C          -0.286316           
         C3        1.0000    0.78390   0.46270   0.07272   Biso      1.000     C          0.312946  
         C4        1.0000    0.87460   0.51460   0.05240   Biso      1.000     C          -0.27712  
         C5        1.0000    0.86120   0.58820   0.01150   Biso      1.000     C          0.086638  
         C6        1.0000    0.75000   0.25000   0.67250   Biso      1.000     C          0.084451  
         C7        1.0000    0.59620   0.81100   0.67970   Biso      1.000     C          0.114691  
         C8        1.0000    0.25000   0.75000   0.82750   Biso      1.000     C          0.084451  
         C9        1.0000    0.25000   0.75000   0.32750   Biso      1.000     C          0.084451  
         C10       1.0000    0.13880   0.41180   0.98850   Biso      1.000     C          0.086638  
         C11       1.0000    0.12540   0.48540   0.94760   Biso      1.000     C          -0.277122           
         C12       1.0000    0.21610   0.53730   0.92728   Biso      1.000     C          0.312934  
         C13       1.0000    0.31530   0.51030   0.94660   Biso      1.000     C          -0.2863   
         C14       1.0000    0.31840   0.43560   0.98840   Biso      1.000     C          0.11369   
         C15       1.0000    0.29090   0.65570   0.86132   Biso      1.000     C          -0.080397           
         C16       1.0000    0.15440   0.71170   0.79247   Biso      1.000     C          -0.07809  
         C17       1.0000    0.68160   0.56440   0.01160   Biso      1.000     C          0.113692  
         C18       1.0000    0.90380   0.68900   0.67970   Biso      1.000     C          0.114692  
         C19       1.0000    0.70910   0.34430   0.13868   Biso      1.000     C          -0.080397           
         C20       1.0000    0.09620   0.31100   0.32030   Biso      1.000     C          0.114691  
         C21       1.0000    0.52490   0.37110   0.31030   Biso      1.000     C          -0.281656           
         C22       1.0000    0.54610   0.28520   0.27681   Biso      1.000     C          0.319707  
         C23       1.0000    0.48400   0.19260   0.28140   Biso      1.000     C          -0.300025           
         C24       1.0000    0.40380   0.18900   0.32030   Biso      1.000     C          0.114691  
         C25       1.0000    0.65440   0.21170   0.20753   Biso      1.000     C          -0.07809  
         C26       1.0000    0.79090   0.15570   0.13868   Biso      1.000     C          -0.080397           
         C27       1.0000    0.81840   0.93560   0.01160   Biso      1.000     C          0.113692  
         C28       1.0000    0.81530   0.01030   0.05340   Biso      1.000     C          -0.286316           
         C29       1.0000    0.71610   0.03730   0.07272   Biso      1.000     C          0.312946  
         C30       1.0000    0.62540   0.98540   0.05240   Biso      1.000     C          -0.27712  
         C31       1.0000    0.63880   0.91180   0.01150   Biso      1.000     C          0.086638  
         C32       1.0000    0.05790   0.14010   0.34754   Biso      1.000     C          0.089518  
         C33       1.0000    0.97510   0.12890   0.31030   Biso      1.000     C          -0.281655           
         C34       1.0000    0.95390   0.21480   0.27681   Biso      1.000     C          0.319707  
         C35       1.0000    0.01600   0.30740   0.28140   Biso      1.000     C          -0.300025           
         C36       1.0000    0.84560   0.28830   0.20753   Biso      1.000     C          -0.07809  
         C37       1.0000    0.98400   0.69260   0.71860   Biso      1.000     C          -0.300033           
         C38       1.0000    0.04610   0.78520   0.72319   Biso      1.000     C          0.31971   
         C39       1.0000    0.02490   0.87110   0.68970   Biso      1.000     C          -0.281651           
         C40       1.0000    0.37110   0.97510   0.18970   Biso      1.000     C          -0.281656           
         C41       1.0000    0.28520   0.95390   0.22319   Biso      1.000     C          0.319707  
         C42       1.0000    0.19260   0.01600   0.21860   Biso      1.000     C          -0.300025           
         C43       1.0000    0.18900   0.09620   0.17970   Biso      1.000     C          0.114691  
         C44       1.0000    0.21170   0.84560   0.29247   Biso      1.000     C          -0.07809  
         C45       1.0000    0.15570   0.70910   0.36132   Biso      1.000     C          -0.080397           
         C46       1.0000    0.93560   0.68160   0.48840   Biso      1.000     C          0.113692  
         C47       1.0000    0.01030   0.68470   0.44660   Biso      1.000     C          -0.286316           
         C48       1.0000    0.03730   0.78390   0.42728   Biso      1.000     C          0.312946  
         C49       1.0000    0.98540   0.87460   0.44760   Biso      1.000     C          -0.27712  
         C50       1.0000    0.91180   0.86120   0.48850   Biso      1.000     C          0.086638  
         C51       1.0000    0.55790   0.64010   0.65246   Biso      1.000     C          0.089518  
         C52       1.0000    0.47510   0.62890   0.68970   Biso      1.000     C          -0.281655           
         C53       1.0000    0.45390   0.71480   0.72319   Biso      1.000     C          0.319707  
         C54       1.0000    0.51600   0.80740   0.71860   Biso      1.000     C          -0.300025           
         C55       1.0000    0.35990   0.05790   0.15246   Biso      1.000     C          0.089518  
         C56       1.0000    0.58820   0.63880   0.48850   Biso      1.000     C          0.086638  
         C57       1.0000    0.51460   0.62540   0.44760   Biso      1.000     C          -0.277122           
         C58       1.0000    0.46270   0.71610   0.42728   Biso      1.000     C          0.312934  
         C59       1.0000    0.94210   0.85990   0.65246   Biso      1.000     C          0.089518  
         C60       1.0000    0.36120   0.08820   0.98850   Biso      1.000     C          0.086638  
         C61       1.0000    0.37460   0.01460   0.94760   Biso      1.000     C          -0.277122           
         C62       1.0000    0.28390   0.96270   0.92728   Biso      1.000     C          0.312934  
         C63       1.0000    0.18470   0.98970   0.94660   Biso      1.000     C          -0.2863   
         C64       1.0000    0.18160   0.06440   0.98840   Biso      1.000     C          0.11369   
         C65       1.0000    0.20910   0.84430   0.86132   Biso      1.000     C          -0.080397           
         C66       1.0000    0.44210   0.35990   0.34754   Biso      1.000     C          0.089518  
         C67       1.0000    0.14010   0.44210   0.15246   Biso      1.000     C          0.089517  
         C68       1.0000    0.21480   0.54610   0.22319   Biso      1.000     C          0.319702  
         C69       1.0000    0.30740   0.48400   0.21860   Biso      1.000     C          -0.300025           
         C70       1.0000    0.31100   0.40380   0.17970   Biso      1.000     C          0.114691  
         C71       1.0000    0.28830   0.65440   0.29247   Biso      1.000     C          -0.07809  
         C72       1.0000    0.34430   0.79090   0.36132   Biso      1.000     C          -0.080397           
         C73       1.0000    0.56440   0.81840   0.48840   Biso      1.000     C          0.11369   
         C74       1.0000    0.48970   0.81530   0.44660   Biso      1.000     C          -0.2863   
         C75       1.0000    0.12890   0.52490   0.18970   Biso      1.000     C          -0.281651           
         C76       1.0000    0.08820   0.13880   0.51150   Biso      1.000     C          0.086638  
         C77       1.0000    0.34560   0.78830   0.79247   Biso      1.000     C          -0.07809  
         C78       1.0000    0.96270   0.21610   0.57272   Biso      1.000     C          0.312931  
         C79       1.0000    0.01460   0.12540   0.55240   Biso      1.000     C          -0.277119           
         C80       1.0000    0.85990   0.55790   0.84754   Biso      1.000     C          0.089518  
         C81       1.0000    0.87110   0.47510   0.81030   Biso      1.000     C          -0.281655           
         C82       1.0000    0.78520   0.45390   0.77681   Biso      1.000     C          0.319707  
         C83       1.0000    0.69260   0.51600   0.78140   Biso      1.000     C          -0.300025           
         C84       1.0000    0.68900   0.59620   0.82030   Biso      1.000     C          0.114691  
         C85       1.0000    0.71170   0.34560   0.70753   Biso      1.000     C          -0.07809  
         C86       1.0000    0.65570   0.20910   0.63868   Biso      1.000     C          -0.080397           
         C87       1.0000    0.43560   0.18160   0.51160   Biso      1.000     C          0.113692  
         C88       1.0000    0.51030   0.18470   0.55340   Biso      1.000     C          -0.286316           
         C89       1.0000    0.53730   0.28390   0.57272   Biso      1.000     C          0.312946  
         C90       1.0000    0.41180   0.36120   0.51150   Biso      1.000     C          0.086638  
         C91       1.0000    0.64010   0.94210   0.84754   Biso      1.000     C          0.089518  
         C92       1.0000    0.62890   0.02490   0.81030   Biso      1.000     C          -0.281655           
         C93       1.0000    0.71480   0.04610   0.77681   Biso      1.000     C          0.319707  
         C94       1.0000    0.80740   0.98400   0.78140   Biso      1.000     C          -0.300025           
         C95       1.0000    0.81100   0.90380   0.82030   Biso      1.000     C          0.114691  
         C96       1.0000    0.78830   0.15440   0.70753   Biso      1.000     C          -0.07809  
         C97       1.0000    0.84430   0.29090   0.63868   Biso      1.000     C          -0.080397           
         C98       1.0000    0.06440   0.31840   0.51160   Biso      1.000     C          0.11369   
         C99       1.0000    0.98970   0.31530   0.55340   Biso      1.000     C          -0.2863   
         C100      1.0000    0.48540   0.37460   0.55240   Biso      1.000     C          -0.27712  
         Cd1       1.0000    0.75000   0.75000   0.57678   Biso      1.000     Cd          0.617454  
         Cd2       1.0000    0.25000   0.25000   0.42322   Biso      1.000     Cd          0.617454  
         Cd3       1.0000    0.25000   0.25000   0.07678   Biso      1.000     Cd          0.617454  
         Cd4       1.0000    0.75000   0.75000   0.92322   Biso      1.000     Cd          0.617454  
         H1        1.0000    0.65720   0.31850   0.11240   Biso      1.000     H          0.101625  
         H2        1.0000    0.99130   0.72920   0.94750   Biso      1.000     H          0.152282  
         H3        1.0000    0.42700   0.41900   0.36940   Biso      1.000     H          0.078794  
         H4        1.0000    0.72920   0.50870   0.55250   Biso      1.000     H          0.152282  
         H5        1.0000    0.07700   0.37830   0.00230   Biso      1.000     H          0.084548  
         H6        1.0000    0.05640   0.49980   0.93400   Biso      1.000     H          0.138992  
         H7        1.0000    0.37870   0.54030   0.93270   Biso      1.000     H          0.14016   
         H8        1.0000    0.38630   0.41940   0.00280   Biso      1.000     H          0.078363  
         H9        1.0000    0.34280   0.68150   0.88760   Biso      1.000     H          0.101625  
         H10       1.0000    0.32650   0.60170   0.83910   Biso      1.000     H          0.098476  
         H11       1.0000    0.09210   0.69320   0.81440   Biso      1.000     H          0.096203  
         H12       1.0000    0.12170   0.07700   0.49770   Biso      1.000     H          0.084548  
         H13       1.0000    0.17530   0.64770   0.77220   Biso      1.000     H          0.096687  
         H14       1.0000    0.99540   0.63350   0.74100   Biso      1.000     H          0.133415  
         H15       1.0000    0.06500   0.93520   0.69190   Biso      1.000     H          0.146437  
         H16       1.0000    0.92700   0.91900   0.63060   Biso      1.000     H          0.078794  
         H17       1.0000    0.77080   0.99130   0.55250   Biso      1.000     H          0.152282  
         H18       1.0000    0.42300   0.12170   0.00230   Biso      1.000     H          0.084548  
         H19       1.0000    0.44360   0.00020   0.93400   Biso      1.000     H          0.138992  
         H20       1.0000    0.12130   0.95970   0.93270   Biso      1.000     H          0.14016   
         H21       1.0000    0.11370   0.08060   0.00280   Biso      1.000     H          0.078363  
         H22       1.0000    0.15720   0.81850   0.88760   Biso      1.000     H          0.101625  
         H23       1.0000    0.17350   0.89830   0.83910   Biso      1.000     H          0.098476  
         H24       1.0000    0.86210   0.62600   0.67710   Biso      1.000     H          0.092365  
         H25       1.0000    0.40790   0.80680   0.81440   Biso      1.000     H          0.096203  
         H26       1.0000    0.00020   0.05640   0.56600   Biso      1.000     H          0.138992  
         H27       1.0000    0.08060   0.38630   0.49720   Biso      1.000     H          0.078363  
         H28       1.0000    0.27080   0.49130   0.44750   Biso      1.000     H          0.152282  
         H29       1.0000    0.91900   0.57300   0.86940   Biso      1.000     H          0.078794  
         H30       1.0000    0.93520   0.43500   0.80810   Biso      1.000     H          0.146437  
         H31       1.0000    0.63350   0.50460   0.75900   Biso      1.000     H          0.133415  
         H32       1.0000    0.62600   0.63790   0.82290   Biso      1.000     H          0.092365  
         H33       1.0000    0.64770   0.32470   0.72780   Biso      1.000     H          0.096687  
         H34       1.0000    0.69320   0.40790   0.68560   Biso      1.000     H          0.096203  
         H35       1.0000    0.60170   0.17350   0.66090   Biso      1.000     H          0.098476  
         H36       1.0000    0.68150   0.15720   0.61240   Biso      1.000     H          0.101625  
         H37       1.0000    0.41940   0.11370   0.49720   Biso      1.000     H          0.078363  
         H38       1.0000    0.95970   0.37870   0.56730   Biso      1.000     H          0.14016   
         H39       1.0000    0.54030   0.12130   0.56730   Biso      1.000     H          0.140162  
         H40       1.0000    0.37830   0.42300   0.49770   Biso      1.000     H          0.084548  
         H41       1.0000    0.50870   0.77080   0.94750   Biso      1.000     H          0.152282  
         H42       1.0000    0.58100   0.92700   0.86940   Biso      1.000     H          0.078794  
         H43       1.0000    0.56480   0.06500   0.80810   Biso      1.000     H          0.146437  
         H44       1.0000    0.86650   0.99540   0.75900   Biso      1.000     H          0.133415  
         H45       1.0000    0.87400   0.86210   0.82290   Biso      1.000     H          0.092365  
         H46       1.0000    0.85230   0.17530   0.72780   Biso      1.000     H          0.096686  
         H47       1.0000    0.80680   0.09210   0.68560   Biso      1.000     H          0.096203  
         H48       1.0000    0.89830   0.32650   0.66090   Biso      1.000     H          0.098476  
         H49       1.0000    0.81850   0.34280   0.61240   Biso      1.000     H          0.101625  
         H50       1.0000    0.49980   0.44360   0.56600   Biso      1.000     H          0.138992  
         H51       1.0000    0.32470   0.85230   0.77220   Biso      1.000     H          0.096687  
         H52       1.0000    0.63790   0.87400   0.67710   Biso      1.000     H          0.092365  
         H53       1.0000    0.50460   0.86650   0.74100   Biso      1.000     H          0.133415  
         H54       1.0000    0.08100   0.42700   0.13060   Biso      1.000     H          0.078794  
         H55       1.0000    0.94360   0.50020   0.06600   Biso      1.000     H          0.138992  
         H56       1.0000    0.62130   0.45970   0.06730   Biso      1.000     H          0.140162  
         H57       1.0000    0.56500   0.43520   0.30810   Biso      1.000     H          0.146437  
         H58       1.0000    0.49540   0.13350   0.25900   Biso      1.000     H          0.133415  
         H59       1.0000    0.36210   0.12600   0.32290   Biso      1.000     H          0.092365  
         H60       1.0000    0.67530   0.14770   0.22780   Biso      1.000     H          0.096687  
         H61       1.0000    0.59210   0.19320   0.18560   Biso      1.000     H          0.096203  
         H62       1.0000    0.82650   0.10170   0.16090   Biso      1.000     H          0.098476  
         H63       1.0000    0.84280   0.18150   0.11240   Biso      1.000     H          0.101625  
         H64       1.0000    0.06480   0.56500   0.19190   Biso      1.000     H          0.146437  
         H65       1.0000    0.88630   0.91940   0.99720   Biso      1.000     H          0.078363  
         H66       1.0000    0.55640   0.99980   0.06600   Biso      1.000     H          0.138992  
         H67       1.0000    0.57700   0.87830   0.99770   Biso      1.000     H          0.084548  
         H68       1.0000    0.22920   0.00870   0.44750   Biso      1.000     H          0.152282  
         H69       1.0000    0.07300   0.08100   0.36940   Biso      1.000     H          0.078794  
         H70       1.0000    0.93500   0.06480   0.30810   Biso      1.000     H          0.146437  
         H71       1.0000    0.00460   0.36650   0.25900   Biso      1.000     H          0.133415  
         H72       1.0000    0.13790   0.37400   0.32290   Biso      1.000     H          0.092365  
         H73       1.0000    0.82470   0.35230   0.22780   Biso      1.000     H          0.096687  
         H74       1.0000    0.90790   0.30680   0.18560   Biso      1.000     H          0.096203  
         H75       1.0000    0.67350   0.39830   0.16090   Biso      1.000     H          0.098476  
         H76       1.0000    0.87870   0.04030   0.06730   Biso      1.000     H          0.140162  
         H77       1.0000    0.36650   0.49540   0.24100   Biso      1.000     H          0.133415  
         H78       1.0000    0.37400   0.36210   0.17710   Biso      1.000     H          0.092365  
         H79       1.0000    0.35230   0.67530   0.27220   Biso      1.000     H          0.096687  
         H80       1.0000    0.43500   0.56480   0.69190   Biso      1.000     H          0.146437  
         H81       1.0000    0.57300   0.58100   0.63060   Biso      1.000     H          0.078794  
         H82       1.0000    0.00870   0.27080   0.05250   Biso      1.000     H          0.152282  
         H83       1.0000    0.87830   0.92300   0.50230   Biso      1.000     H          0.084548  
         H84       1.0000    0.99980   0.94360   0.43400   Biso      1.000     H          0.138992  
         H85       1.0000    0.04030   0.62130   0.43270   Biso      1.000     H          0.140162  
         H86       1.0000    0.91940   0.61370   0.50280   Biso      1.000     H          0.078363  
         H87       1.0000    0.18150   0.65720   0.38760   Biso      1.000     H          0.101625  
         H88       1.0000    0.10170   0.67350   0.33910   Biso      1.000     H          0.098476  
         H89       1.0000    0.19320   0.90790   0.31440   Biso      1.000     H          0.096203  
         H90       1.0000    0.14770   0.82470   0.27220   Biso      1.000     H          0.096687  
         H91       1.0000    0.92300   0.62170   0.99770   Biso      1.000     H          0.084548  
         H92       1.0000    0.13350   0.00460   0.24100   Biso      1.000     H          0.133415  
         H93       1.0000    0.43520   0.93500   0.19190   Biso      1.000     H          0.146437  
         H94       1.0000    0.41900   0.07300   0.13060   Biso      1.000     H          0.078794  
         H95       1.0000    0.49130   0.22920   0.05250   Biso      1.000     H          0.152282  
         H96       1.0000    0.62170   0.57700   0.50230   Biso      1.000     H          0.084548  
         H97       1.0000    0.50020   0.55640   0.43400   Biso      1.000     H          0.138992  
         H98       1.0000    0.45970   0.87870   0.43270   Biso      1.000     H          0.14016   
         H99       1.0000    0.58060   0.88630   0.50280   Biso      1.000     H          0.078363  
         H100      1.0000    0.31850   0.84280   0.38760   Biso      1.000     H          0.101625  
         H101      1.0000    0.39830   0.82650   0.33910   Biso      1.000     H          0.098476  
         H102      1.0000    0.30680   0.59210   0.31440   Biso      1.000     H          0.096203  
         H103      1.0000    0.61370   0.58060   0.99720   Biso      1.000     H          0.078363  
         H104      1.0000    0.12600   0.13790   0.17710   Biso      1.000     H          0.092365  
         N1        1.0000    0.11720   0.23020   0.35394   Biso      1.000     N          -0.225145           
         N2        1.0000    0.88620   0.76680   0.50914   Biso      1.000     N          -0.228118           
         N3        1.0000    0.76980   0.61720   0.85394   Biso      1.000     N          -0.225145           
         N4        1.0000    0.38620   0.26680   0.49086   Biso      1.000     N          -0.228118           
         N5        1.0000    0.73020   0.88280   0.85394   Biso      1.000     N          -0.225145           
         N6        1.0000    0.11380   0.23320   0.49086   Biso      1.000     N          -0.228117           
         N7        1.0000    0.26980   0.11720   0.14606   Biso      1.000     N          -0.225145           
         N8        1.0000    0.73320   0.88620   0.99086   Biso      1.000     N          -0.228118           
         N9        1.0000    0.61380   0.73320   0.50914   Biso      1.000     N          -0.228117           
         N10       1.0000    0.38280   0.26980   0.35394   Biso      1.000     N          -0.225145           
         N11       1.0000    0.23320   0.38620   0.00914   Biso      1.000     N          -0.228117           
         N12       1.0000    0.88280   0.76980   0.64606   Biso      1.000     N          -0.225145           
         N13       1.0000    0.26680   0.11380   0.00914   Biso      1.000     N          -0.228117           
         N14       1.0000    0.61720   0.73020   0.64606   Biso      1.000     N          -0.225145           
         N15       1.0000    0.76680   0.61380   0.99086   Biso      1.000     N          -0.228118           
         N16       1.0000    0.23020   0.38280   0.14606   Biso      1.000     N          -0.225145           
         O1        1.0000    0.39080   0.69750   0.38710   Biso      1.000     O          -0.189475           
         O2        1.0000    0.20070   0.62770   0.25742   Biso      1.000     O          -0.18441  
         O3        1.0000    0.29930   0.87230   0.25742   Biso      1.000     O          -0.184411           
         O4        1.0000    0.10920   0.80250   0.38710   Biso      1.000     O          -0.189476           
         O5        1.0000    0.37230   0.70070   0.75742   Biso      1.000     O          -0.184411           
         O6        1.0000    0.30250   0.89080   0.88710   Biso      1.000     O          -0.189475           
         O7        1.0000    0.80250   0.39080   0.11290   Biso      1.000     O          -0.189476           
         O8        1.0000    0.70070   0.12770   0.74258   Biso      1.000     O          -0.184411           
         O9        1.0000    0.79930   0.37230   0.74258   Biso      1.000     O          -0.184411           
         O10       1.0000    0.60920   0.30250   0.61290   Biso      1.000     O          -0.189476           
         O11       1.0000    0.89080   0.19750   0.61290   Biso      1.000     O          -0.189475           
         O12       1.0000    0.62770   0.29930   0.24258   Biso      1.000     O          -0.184411           
         O13       1.0000    0.19750   0.60920   0.88710   Biso      1.000     O          -0.189475           
         O14       1.0000    0.87230   0.20070   0.24258   Biso      1.000     O          -0.184411           
         O15       1.0000    0.12770   0.79930   0.75742   Biso      1.000     O          -0.184411           
         O16       1.0000    0.69750   0.10920   0.11290   Biso      1.000     O          -0.189476           
         S1        1.0000    0.72386   0.95822   0.57846   Biso      1.000     S          -0.695739           
         S2        1.0000    0.45822   0.27614   0.07846   Biso      1.000     S          -0.695739           
         S3        1.0000    0.04178   0.22386   0.07846   Biso      1.000     S          -0.695739           
         S4        1.0000    0.22386   0.45822   0.42154   Biso      1.000     S          -0.695739           
         S5        1.0000    0.27614   0.04178   0.42154   Biso      1.000     S          -0.695739           
         S6        1.0000    0.95822   0.77614   0.92154   Biso      1.000     S          -0.695739           
         S7        1.0000    0.54178   0.72386   0.92154   Biso      1.000     S          -0.695739           
         S8        1.0000    0.77614   0.54178   0.57846   Biso      1.000     S          -0.695739 