
##########################################################################
#               Crystallographic Information Format file
#               Produced by PyCifRW module
#
#  This is a CIF file.  CIF has been adopted by the International
#  Union of Crystallography as the standard for data archiving and
#  transmission.
#
#  For information on this file format, follow the CIF links at
#  http://www.iucr.org
##########################################################################

data_image0

_cell_length_a                          16.169
_cell_length_b                          16.169
_cell_length_c                          18.199
_cell_angle_alpha                       90
_cell_angle_beta                        90
_cell_angle_gamma                       90
_symmetry_space_group_name_H-M          'P 1'
_symmetry_int_tables_number             1
loop_
  _symmetry_equiv_pos_as_xyz
         'x, y, z' 
loop_
  _atom_site_label
  _atom_site_occupancy
  _atom_site_fract_x
  _atom_site_fract_y
  _atom_site_fract_z
  _atom_site_thermal_displace_type
  _atom_site_B_iso_or_equiv
  _atom_site_type_symbol
  _atom_site_charge
         C1        1.0000    0.36490   0.04710   0.62100   Biso      1.000     C          -0.180298           
         C2        1.0000    0.29400   0.09290   0.65680   Biso      1.000     C          -0.064092           
         C3        1.0000    0.36200   0.95470   0.61770   Biso      1.000     C          -0.183372           
         C4        1.0000    0.33500   0.91290   0.67200   Biso      1.000     C          -0.033327           
         C5        1.0000    0.70600   0.90710   0.65680   Biso      1.000     C          -0.064105           
         C6        1.0000    0.63510   0.95290   0.62100   Biso      1.000     C          -0.180285           
         C7        1.0000    0.63800   0.04530   0.61770   Biso      1.000     C          -0.183369           
         C8        1.0000    0.09290   0.70600   0.34320   Biso      1.000     C          -0.064005           
         C9        1.0000    0.04710   0.63510   0.37900   Biso      1.000     C          -0.180307           
         C10       1.0000    0.95470   0.63800   0.38230   Biso      1.000     C          -0.183354           
         C11       1.0000    0.91290   0.66500   0.32800   Biso      1.000     C          -0.033396           
         C12       1.0000    0.90710   0.29400   0.34320   Biso      1.000     C          -0.064087           
         C13       1.0000    0.95290   0.36490   0.37900   Biso      1.000     C          -0.180336           
         C14       1.0000    0.04530   0.36200   0.38230   Biso      1.000     C          -0.183343           
         C15       1.0000    0.08710   0.33500   0.32800   Biso      1.000     C          -0.033424           
         C16       1.0000    0.20600   0.59290   0.84320   Biso      1.000     C          -0.064066           
         C17       1.0000    0.66500   0.08710   0.67200   Biso      1.000     C          -0.03339  
         C18       1.0000    0.13800   0.45470   0.88230   Biso      1.000     C          -0.183324           
         C19       1.0000    0.13510   0.54710   0.87900   Biso      1.000     C          -0.180273           
         C20       1.0000    0.41290   0.83500   0.17200   Biso      1.000     C          -0.033441           
         C21       1.0000    0.45470   0.86200   0.11770   Biso      1.000     C          -0.183263           
         C22       1.0000    0.54710   0.86490   0.12100   Biso      1.000     C          -0.180299           
         C23       1.0000    0.58710   0.16500   0.17200   Biso      1.000     C          -0.033468           
         C24       1.0000    0.54530   0.13800   0.11770   Biso      1.000     C          -0.183296           
         C25       1.0000    0.59290   0.79400   0.15680   Biso      1.000     C          -0.06409  
         C26       1.0000    0.40710   0.20600   0.15680   Biso      1.000     C          -0.06404  
         C27       1.0000    0.83500   0.58710   0.82800   Biso      1.000     C          -0.033511           
         C28       1.0000    0.86200   0.54530   0.88230   Biso      1.000     C          -0.183249           
         C29       1.0000    0.86490   0.45290   0.87900   Biso      1.000     C          -0.180272           
         C30       1.0000    0.79400   0.40710   0.84320   Biso      1.000     C          -0.064079           
         C31       1.0000    0.16500   0.41290   0.82800   Biso      1.000     C          -0.033479           
         C32       1.0000    0.45290   0.13510   0.12100   Biso      1.000     C          -0.180273           
         H1        1.0000    0.74350   0.42180   0.86880   Biso      1.000     H          0.092576  
         H2        1.0000    0.13030   0.56720   0.92920   Biso      1.000     H          0.081836  
         H3        1.0000    0.78880   0.42700   0.79310   Biso      1.000     H          0.114827  
         H4        1.0000    0.21980   0.43520   0.81780   Biso      1.000     H          0.123246  
         H5        1.0000    0.13080   0.42810   0.78670   Biso      1.000     H          0.101268  
         H6        1.0000    0.17100   0.43990   0.92480   Biso      1.000     H          0.083934  
         H7        1.0000    0.08210   0.43570   0.89190   Biso      1.000     H          0.082348  
         H8        1.0000    0.25650   0.57820   0.86880   Biso      1.000     H          0.092592  
         H9        1.0000    0.92180   0.24350   0.36880   Biso      1.000     H          0.092558  
         H10       1.0000    0.06480   0.28020   0.31780   Biso      1.000     H          0.123185  
         H11       1.0000    0.07190   0.36920   0.28670   Biso      1.000     H          0.101167  
         H12       1.0000    0.06010   0.32900   0.42480   Biso      1.000     H          0.0839    
         H13       1.0000    0.06430   0.41790   0.39190   Biso      1.000     H          0.082358  
         H14       1.0000    0.93280   0.36970   0.42920   Biso      1.000     H          0.081841  
         H15       1.0000    0.93740   0.41530   0.35380   Biso      1.000     H          0.090275  
         H16       1.0000    0.92700   0.28880   0.29310   Biso      1.000     H          0.114821  
         H17       1.0000    0.91530   0.43740   0.85380   Biso      1.000     H          0.09029   
         H18       1.0000    0.21120   0.57300   0.79310   Biso      1.000     H          0.114827  
         H19       1.0000    0.86970   0.43280   0.92920   Biso      1.000     H          0.081856  
         H20       1.0000    0.56720   0.86970   0.07080   Biso      1.000     H          0.081833  
         H21       1.0000    0.82900   0.56010   0.92480   Biso      1.000     H          0.083923  
         H22       1.0000    0.43520   0.78020   0.18220   Biso      1.000     H          0.123191  
         H23       1.0000    0.42810   0.86920   0.21330   Biso      1.000     H          0.101291  
         H24       1.0000    0.43990   0.82900   0.07520   Biso      1.000     H          0.08393   
         H25       1.0000    0.43570   0.91790   0.10810   Biso      1.000     H          0.082329  
         H26       1.0000    0.93520   0.71980   0.31780   Biso      1.000     H          0.12317   
         H27       1.0000    0.56260   0.91530   0.14620   Biso      1.000     H          0.090278  
         H28       1.0000    0.57820   0.74350   0.13120   Biso      1.000     H          0.0925    
         H29       1.0000    0.57300   0.78880   0.20690   Biso      1.000     H          0.114796  
         H30       1.0000    0.91790   0.56430   0.89190   Biso      1.000     H          0.082332  
         H31       1.0000    0.56480   0.21980   0.18220   Biso      1.000     H          0.123171  
         H32       1.0000    0.56010   0.17100   0.07520   Biso      1.000     H          0.083921  
         H33       1.0000    0.56430   0.08210   0.10810   Biso      1.000     H          0.082355  
         H34       1.0000    0.43280   0.13030   0.07080   Biso      1.000     H          0.081843  
         H35       1.0000    0.43740   0.08470   0.14620   Biso      1.000     H          0.090257  
         H36       1.0000    0.42180   0.25650   0.13120   Biso      1.000     H          0.09253   
         H37       1.0000    0.42700   0.21120   0.20690   Biso      1.000     H          0.114814  
         H38       1.0000    0.78020   0.56480   0.81780   Biso      1.000     H          0.123257  
         H39       1.0000    0.86920   0.57190   0.78670   Biso      1.000     H          0.101309  
         H40       1.0000    0.57190   0.13080   0.21330   Biso      1.000     H          0.101244  
         H41       1.0000    0.92810   0.63080   0.28670   Biso      1.000     H          0.10115   
         H42       1.0000    0.08470   0.56260   0.85380   Biso      1.000     H          0.090259  
         H43       1.0000    0.93570   0.58210   0.39190   Biso      1.000     H          0.082345  
         H44       1.0000    0.28880   0.07300   0.70690   Biso      1.000     H          0.114814  
         H45       1.0000    0.24350   0.07820   0.63120   Biso      1.000     H          0.092576  
         H46       1.0000    0.41530   0.06260   0.64620   Biso      1.000     H          0.090273  
         H47       1.0000    0.36970   0.06720   0.57080   Biso      1.000     H          0.081808  
         H48       1.0000    0.41790   0.93570   0.60810   Biso      1.000     H          0.082325  
         H49       1.0000    0.36920   0.92810   0.71330   Biso      1.000     H          0.101189  
         H50       1.0000    0.28020   0.93520   0.68220   Biso      1.000     H          0.123201  
         H51       1.0000    0.71120   0.92700   0.70690   Biso      1.000     H          0.114854  
         H52       1.0000    0.93990   0.67100   0.42480   Biso      1.000     H          0.083897  
         H53       1.0000    0.75650   0.92180   0.63120   Biso      1.000     H          0.092617  
         H54       1.0000    0.32900   0.93990   0.57520   Biso      1.000     H          0.083923  
         H55       1.0000    0.63030   0.93280   0.57080   Biso      1.000     H          0.081848  
         H56       1.0000    0.58210   0.06430   0.60810   Biso      1.000     H          0.08235   
         H57       1.0000    0.67100   0.06010   0.57520   Biso      1.000     H          0.083923  
         H58       1.0000    0.63080   0.07190   0.71330   Biso      1.000     H          0.101228  
         H59       1.0000    0.71980   0.06480   0.68220   Biso      1.000     H          0.123199  
         H60       1.0000    0.07300   0.71120   0.29310   Biso      1.000     H          0.11485   
         H61       1.0000    0.07820   0.75650   0.36880   Biso      1.000     H          0.092556  
         H62       1.0000    0.06260   0.58470   0.35380   Biso      1.000     H          0.090252  
         H63       1.0000    0.06720   0.63030   0.42920   Biso      1.000     H          0.081837  
         H64       1.0000    0.58470   0.93740   0.64620   Biso      1.000     H          0.090291  
         N1        1.0000    0.20000   0.68470   0.84110   Biso      1.000     N          -0.606092           
         N2        1.0000    0.17390   0.32570   0.32360   Biso      1.000     N          -0.557991           
         N3        1.0000    0.81530   0.30000   0.34110   Biso      1.000     N          -0.606859           
         N4        1.0000    0.82610   0.67430   0.32360   Biso      1.000     N          -0.558387           
         N5        1.0000    0.30000   0.18470   0.65890   Biso      1.000     N          -0.606231           
         N6        1.0000    0.67430   0.17390   0.67640   Biso      1.000     N          -0.558445           
         N7        1.0000    0.70000   0.81530   0.65890   Biso      1.000     N          -0.605583           
         N8        1.0000    0.32570   0.82610   0.67640   Biso      1.000     N          -0.558506           
         N9        1.0000    0.17430   0.32610   0.82360   Biso      1.000     N          -0.557927           
         N10       1.0000    0.18470   0.70000   0.34110   Biso      1.000     N          -0.606346           
         N11       1.0000    0.80000   0.31530   0.84110   Biso      1.000     N          -0.60632  
         N12       1.0000    0.68470   0.80000   0.15890   Biso      1.000     N          -0.606348           
         N13       1.0000    0.31530   0.20000   0.15890   Biso      1.000     N          -0.606088           
         N14       1.0000    0.67390   0.17430   0.17640   Biso      1.000     N          -0.558722           
         N15       1.0000    0.32610   0.82570   0.17640   Biso      1.000     N          -0.55821  
         N16       1.0000    0.82570   0.67390   0.82360   Biso      1.000     N          -0.557362           
         O1        1.0000    0.40850   0.29980   0.42400   Biso      1.000     O          -0.995523           
         O2        1.0000    0.58620   0.42200   0.33610   Biso      1.000     O          -0.979008           
         O3        1.0000    0.41130   0.42580   0.32740   Biso      1.000     O          -1.019194           
         O4        1.0000    0.70720   0.57460   0.43950   Biso      1.000     O          -1.00194  
         O5        1.0000    0.66260   0.28180   0.29360   Biso      1.000     O          -0.866472           
         O6        1.0000    0.29740   0.58480   0.43600   Biso      1.000     O          -0.990043           
         O7        1.0000    0.50250   0.70880   0.30560   Biso      1.000     O          -0.890545           
         O8        1.0000    0.78160   0.83330   0.79720   Biso      1.000     O          -0.879102           
         O9        1.0000    0.66670   0.71840   0.29720   Biso      1.000     O          -0.879019           
         O10       1.0000    0.59150   0.70020   0.42400   Biso      1.000     O          -0.994881           
         O11       1.0000    0.41380   0.57800   0.33610   Biso      1.000     O          -0.978795           
         O12       1.0000    0.58870   0.57420   0.32740   Biso      1.000     O          -1.019045           
         O13       1.0000    0.79320   0.08580   0.92550   Biso      1.000     O          -1.002235           
         O14       1.0000    0.79980   0.90850   0.92400   Biso      1.000     O          -0.994808           
         O15       1.0000    0.92200   0.08620   0.83610   Biso      1.000     O          -0.979323           
         O16       1.0000    0.92580   0.91130   0.82740   Biso      1.000     O          -1.018386           
         O17       1.0000    0.07460   0.20720   0.93950   Biso      1.000     O          -1.002218           
         O18       1.0000    0.78180   0.16260   0.79360   Biso      1.000     O          -0.86624  
         O19       1.0000    0.58580   0.29320   0.42550   Biso      1.000     O          -1.001806           
         O20       1.0000    0.41420   0.70680   0.42550   Biso      1.000     O          -1.002045           
         O21       1.0000    0.33330   0.28160   0.29720   Biso      1.000     O          -0.879086           
         O22       1.0000    0.58480   0.70260   0.56400   Biso      1.000     O          -0.989273           
         O23       1.0000    0.70260   0.41520   0.43600   Biso      1.000     O          -0.990178           
         O24       1.0000    0.91130   0.07420   0.17260   Biso      1.000     O          -1.018636           
         O25       1.0000    0.08620   0.07800   0.16390   Biso      1.000     O          -0.979464           
         O26       1.0000    0.90850   0.20020   0.07600   Biso      1.000     O          -0.994844           
         O27       1.0000    0.08580   0.20680   0.07450   Biso      1.000     O          -1.001793           
         O28       1.0000    0.83330   0.21840   0.20280   Biso      1.000     O          -0.879075           
         O29       1.0000    0.99750   0.20880   0.19440   Biso      1.000     O          -0.890592           
         O30       1.0000    0.20260   0.08480   0.06400   Biso      1.000     O          -0.989589           
         O31       1.0000    0.20720   0.92540   0.06050   Biso      1.000     O          -1.002257           
         O32       1.0000    0.83740   0.78180   0.20640   Biso      1.000     O          -0.86627  
         O33       1.0000    0.08870   0.92580   0.17260   Biso      1.000     O          -1.01872  
         O34       1.0000    0.91380   0.92200   0.16390   Biso      1.000     O          -0.979454           
         O35       1.0000    0.09150   0.79980   0.07600   Biso      1.000     O          -0.99492  
         O36       1.0000    0.91420   0.79320   0.07450   Biso      1.000     O          -1.002104           
         O37       1.0000    0.16670   0.78160   0.20280   Biso      1.000     O          -0.879125           
         O38       1.0000    0.00250   0.79120   0.19440   Biso      1.000     O          -0.890668           
         O39       1.0000    0.79120   0.99750   0.80560   Biso      1.000     O          -0.890732           
         O40       1.0000    0.79280   0.07460   0.06050   Biso      1.000     O          -1.002278           
         O41       1.0000    0.49750   0.29120   0.30560   Biso      1.000     O          -0.890556           
         O42       1.0000    0.16260   0.21820   0.20640   Biso      1.000     O          -0.866285           
         O43       1.0000    0.29120   0.50250   0.69440   Biso      1.000     O          -0.890805           
         O44       1.0000    0.71820   0.66260   0.70640   Biso      1.000     O          -0.866266           
         O45       1.0000    0.42540   0.70720   0.56050   Biso      1.000     O          -1.002244           
         O46       1.0000    0.57420   0.41130   0.67260   Biso      1.000     O          -1.018804           
         O47       1.0000    0.57800   0.58620   0.66390   Biso      1.000     O          -0.979056           
         O48       1.0000    0.70020   0.40850   0.57600   Biso      1.000     O          -0.994707           
         O49       1.0000    0.70680   0.58580   0.57450   Biso      1.000     O          -1.002496           
         O50       1.0000    0.71840   0.33330   0.70280   Biso      1.000     O          -0.879031           
         O51       1.0000    0.41520   0.29740   0.56400   Biso      1.000     O          -0.989358           
         O52       1.0000    0.70880   0.49750   0.69440   Biso      1.000     O          -0.890762           
         O53       1.0000    0.57460   0.29280   0.56050   Biso      1.000     O          -1.002779           
         O54       1.0000    0.42580   0.58870   0.67260   Biso      1.000     O          -1.019017           
         O55       1.0000    0.42200   0.41380   0.66390   Biso      1.000     O          -0.97923  
         O56       1.0000    0.29980   0.59150   0.57600   Biso      1.000     O          -0.994832           
         O57       1.0000    0.79740   0.91520   0.06400   Biso      1.000     O          -0.989514           
         O58       1.0000    0.29320   0.41420   0.57450   Biso      1.000     O          -1.003019           
         O59       1.0000    0.28160   0.66670   0.70280   Biso      1.000     O          -0.879083           
         O60       1.0000    0.28180   0.33740   0.70640   Biso      1.000     O          -0.866267           
         O61       1.0000    0.91520   0.20260   0.93600   Biso      1.000     O          -0.989303           
         O62       1.0000    0.33740   0.71820   0.29360   Biso      1.000     O          -0.866442           
         O63       1.0000    0.92540   0.79280   0.93950   Biso      1.000     O          -1.002188           
         O64       1.0000    0.21820   0.83740   0.79360   Biso      1.000     O          -0.866273           
         O65       1.0000    0.08480   0.79740   0.93600   Biso      1.000     O          -0.989209           
         O66       1.0000    0.20880   0.00250   0.80560   Biso      1.000     O          -0.890743           
         O67       1.0000    0.21840   0.16670   0.79720   Biso      1.000     O          -0.878976           
         O68       1.0000    0.29280   0.42540   0.43950   Biso      1.000     O          -1.001879           
         O69       1.0000    0.20020   0.09150   0.92400   Biso      1.000     O          -0.994564           
         O70       1.0000    0.07800   0.91380   0.83610   Biso      1.000     O          -0.979488           
         O71       1.0000    0.07420   0.08870   0.82740   Biso      1.000     O          -1.018459           
         O72       1.0000    0.20680   0.91420   0.92550   Biso      1.000     O          -1.002217           
         Si1       1.0000    0.90700   0.17700   0.16230   Biso      1.000     Si          1.771245  
         Si2       1.0000    0.17700   0.09300   0.83770   Biso      1.000     Si          1.770936  
         Si3       1.0000    0.17990   0.91460   0.83780   Biso      1.000     Si          1.768083  
         Si4       1.0000    0.82300   0.90700   0.83770   Biso      1.000     Si          1.771093  
         Si5       1.0000    0.09300   0.82300   0.16230   Biso      1.000     Si          1.7713    
         Si6       1.0000    0.91460   0.82010   0.16220   Biso      1.000     Si          1.768062  
         Si7       1.0000    0.08540   0.17990   0.16220   Biso      1.000     Si          1.767964  
         Si8       1.0000    0.82010   0.08540   0.83780   Biso      1.000     Si          1.767907  
         Si9       1.0000    0.32010   0.41460   0.66220   Biso      1.000     Si          1.768227  
         Si10      1.0000    0.32300   0.59300   0.66230   Biso      1.000     Si          1.771177  
         Si11      1.0000    0.59300   0.67700   0.33770   Biso      1.000     Si          1.771173  
         Si12      1.0000    0.58540   0.32010   0.33780   Biso      1.000     Si          1.768036  
         Si13      1.0000    0.41460   0.67990   0.33780   Biso      1.000     Si          1.768043  
         Si14      1.0000    0.67990   0.58540   0.66220   Biso      1.000     Si          1.76789   
         Si15      1.0000    0.67700   0.40700   0.66230   Biso      1.000     Si          1.771037  
         Si16      1.0000    0.40700   0.32300   0.33770   Biso      1.000     Si          1.771492  
         V1        1.0000    0.49580   0.32246   0.63593   Biso      1.000     V          1.397567  
         V2        1.0000    0.74860   0.21390   0.27242   Biso      1.000     V          1.241041  
         V3        1.0000    0.99543   0.24685   0.00755   Biso      1.000     V          1.257452  
         V4        1.0000    0.16897   0.17532   0.99990   Biso      1.000     V          1.409913  
         V5        1.0000    0.17754   0.00420   0.13593   Biso      1.000     V          1.397345  
         V6        1.0000    0.25140   0.78610   0.27242   Biso      1.000     V          1.24074   
         V7        1.0000    0.00457   0.75315   0.00755   Biso      1.000     V          1.257724  
         V8        1.0000    0.83103   0.82468   0.99990   Biso      1.000     V          1.410055  
         V9        1.0000    0.78610   0.74860   0.72758   Biso      1.000     V          1.240331  
         V10       1.0000    0.75315   0.99543   0.99245   Biso      1.000     V          1.258024  
         V11       1.0000    0.82468   0.16897   0.00010   Biso      1.000     V          1.410031  
         V12       1.0000    0.99580   0.17754   0.86407   Biso      1.000     V          1.397101  
         V13       1.0000    0.21390   0.25140   0.72758   Biso      1.000     V          1.240664  
         V14       1.0000    0.24685   0.00457   0.99245   Biso      1.000     V          1.257808  
         V15       1.0000    0.17532   0.83103   0.00010   Biso      1.000     V          1.409687  
         V16       1.0000    0.82246   0.99580   0.13593   Biso      1.000     V          1.39726   
         V17       1.0000    0.32468   0.33103   0.49990   Biso      1.000     V          1.410627  
         V18       1.0000    0.50457   0.74685   0.49245   Biso      1.000     V          1.257745  
         V19       1.0000    0.28610   0.75140   0.77242   Biso      1.000     V          1.240757  
         V20       1.0000    0.50000   0.50000   0.29698   Biso      1.000     V          1.266557  
         V21       1.0000    0.50000   0.50000   0.70302   Biso      1.000     V          1.265781  
         V22       1.0000    0.00000   0.00000   0.20302   Biso      1.000     V          1.265922  
         V23       1.0000    0.00000   0.00000   0.79698   Biso      1.000     V          1.265865  
         V24       1.0000    0.75140   0.71390   0.22758   Biso      1.000     V          1.240697  
         V25       1.0000    0.33103   0.67532   0.50010   Biso      1.000     V          1.410643  
         V26       1.0000    0.32246   0.50420   0.36407   Biso      1.000     V          1.396973  
         V27       1.0000    0.24860   0.28610   0.22758   Biso      1.000     V          1.240689  
         V28       1.0000    0.49543   0.25315   0.49245   Biso      1.000     V          1.258489  
         V29       1.0000    0.66897   0.32468   0.50010   Biso      1.000     V          1.410889  
         V30       1.0000    0.67754   0.49580   0.36407   Biso      1.000     V          1.397498  
         V31       1.0000    0.71390   0.24860   0.77242   Biso      1.000     V          1.240772  
         V32       1.0000    0.74685   0.49543   0.50755   Biso      1.000     V          1.25812   
         V33       1.0000    0.67532   0.66897   0.49990   Biso      1.000     V          1.409606  
         V34       1.0000    0.50420   0.67754   0.63593   Biso      1.000     V          1.397574  
         V35       1.0000    0.25315   0.50457   0.50755   Biso      1.000     V          1.257914  
         V36       1.0000    0.00420   0.82246   0.86407   Biso      1.000     V          1.396807 