
##########################################################################
#               Crystallographic Information Format file
#               Produced by PyCifRW module
#
#  This is a CIF file.  CIF has been adopted by the International
#  Union of Crystallography as the standard for data archiving and
#  transmission.
#
#  For information on this file format, follow the CIF links at
#  http://www.iucr.org
##########################################################################

data_image0

_cell_length_a                          10.7613
_cell_length_b                          7.1944
_cell_length_c                          17.2162
_cell_angle_alpha                       90
_cell_angle_beta                        97.107
_cell_angle_gamma                       90
_symmetry_space_group_name_H-M          'P 1'
_symmetry_int_tables_number             1
loop_
  _symmetry_equiv_pos_as_xyz
         'x, y, z' 
loop_
  _atom_site_label
  _atom_site_occupancy
  _atom_site_fract_x
  _atom_site_fract_y
  _atom_site_fract_z
  _atom_site_thermal_displace_type
  _atom_site_B_iso_or_equiv
  _atom_site_type_symbol
  _atom_site_charge
         C1        1.0000    0.91620   0.67140   0.35116   Biso      1.000     C          0.635213  
         C2        1.0000    0.95850   0.57360   0.42643   Biso      1.000     C          -0.012709999999999999         
         C3        1.0000    0.99350   0.31030   0.51210   Biso      1.000     C          -0.111344           
         C4        1.0000    0.62190   0.68180   0.57983   Biso      1.000     C          0.598622  
         C5        1.0000    0.12190   0.81820   0.07983   Biso      1.000     C          0.598622  
         C6        1.0000    0.05320   0.65830   0.03750   Biso      1.000     C          -0.032447000000000004         
         C7        1.0000    0.90120   0.41100   0.02898   Biso      1.000     C          -0.119306           
         C8        1.0000    0.95320   0.57020   0.06620   Biso      1.000     C          -0.032338           
         C9        1.0000    0.58380   0.17140   0.14884   Biso      1.000     C          0.635213  
         C10       1.0000    0.89160   0.64660   0.13360   Biso      1.000     C          0.670091  
         C11       1.0000    0.41620   0.82860   0.85116   Biso      1.000     C          0.635213  
         C12       1.0000    0.45850   0.92640   0.92643   Biso      1.000     C          -0.012709999999999999         
         C13       1.0000    0.45190   0.11820   0.93853   Biso      1.000     C          -0.035662           
         C14       1.0000    0.49350   0.18970   0.01210   Biso      1.000     C          -0.111344           
         C15       1.0000    0.40550   0.25210   0.87513   Biso      1.000     C          0.63029   
         C16       1.0000    0.39160   0.85340   0.63360   Biso      1.000     C          0.670091  
         C17       1.0000    0.45320   0.92980   0.56620   Biso      1.000     C          -0.032339           
         C18       1.0000    0.90550   0.24790   0.37513   Biso      1.000     C          0.630289  
         C19       1.0000    0.54150   0.07360   0.07357   Biso      1.000     C          -0.012709999999999999         
         C20       1.0000    0.54810   0.88180   0.06147   Biso      1.000     C          -0.035662           
         C21       1.0000    0.87810   0.18180   0.92017   Biso      1.000     C          0.598621  
         C22       1.0000    0.95190   0.38180   0.43853   Biso      1.000     C          -0.035661           
         C23       1.0000    0.37810   0.31820   0.42017   Biso      1.000     C          0.598622  
         C24       1.0000    0.44680   0.15830   0.46250   Biso      1.000     C          -0.032447000000000004         
         C25       1.0000    0.59880   0.91100   0.47102   Biso      1.000     C          -0.119306           
         C26       1.0000    0.54680   0.07020   0.43380   Biso      1.000     C          -0.032338           
         C27       1.0000    0.60840   0.14660   0.36640   Biso      1.000     C          0.670091  
         C28       1.0000    0.59450   0.74790   0.12487   Biso      1.000     C          0.63029   
         C29       1.0000    0.50650   0.81030   0.98790   Biso      1.000     C          -0.11134300000000001          
         C30       1.0000    0.08380   0.32860   0.64884   Biso      1.000     C          0.635213  
         C31       1.0000    0.04150   0.42640   0.57357   Biso      1.000     C          -0.012709999999999999         
         C32       1.0000    0.04810   0.61820   0.56147   Biso      1.000     C          -0.035662           
         C33       1.0000    0.00650   0.68970   0.48790   Biso      1.000     C          -0.11134300000000001          
         C34       1.0000    0.09450   0.75210   0.62487   Biso      1.000     C          0.63029   
         C35       1.0000    0.10840   0.35340   0.86640   Biso      1.000     C          0.670091  
         C36       1.0000    0.04680   0.42980   0.93380   Biso      1.000     C          -0.032339           
         C37       1.0000    0.09880   0.58900   0.97102   Biso      1.000     C          -0.119306           
         C38       1.0000    0.94680   0.34170   0.96250   Biso      1.000     C          -0.032445999999999996         
         C39       1.0000    0.40120   0.08900   0.52898   Biso      1.000     C          -0.119306           
         C40       1.0000    0.55320   0.84170   0.53750   Biso      1.000     C          -0.032445999999999996         
         H1        1.0000    0.68600   0.44600   0.56400   Biso      1.000     H          0.404127  
         H2        1.0000    0.82200   0.35200   0.04800   Biso      1.000     H          0.12978199999999998           
         H3        1.0000    0.50700   0.67400   0.97800   Biso      1.000     H          0.135226  
         H4        1.0000    0.99300   0.17400   0.52200   Biso      1.000     H          0.135226  
         H5        1.0000    0.18600   0.05400   0.06400   Biso      1.000     H          0.404127  
         H6        1.0000    0.31400   0.55400   0.43600   Biso      1.000     H          0.404127  
         H7        1.0000    0.32200   0.14800   0.54800   Biso      1.000     H          0.12978199999999998           
         H8        1.0000    0.00700   0.82600   0.47800   Biso      1.000     H          0.135226  
         H9        1.0000    0.17800   0.64800   0.95200   Biso      1.000     H          0.12978299999999998           
         H10       1.0000    0.81400   0.94600   0.93600   Biso      1.000     H          0.404127  
         H11       1.0000    0.67800   0.85200   0.45200   Biso      1.000     H          0.12978199999999998           
         H12       1.0000    0.49300   0.32600   0.02200   Biso      1.000     H          0.135226  
         O1        1.0000    0.70181   0.19170   0.16928   Biso      1.000     O          -0.767686           
         O2        1.0000    0.64320   0.81030   0.19178   Biso      1.000     O          -0.746259           
         O3        1.0000    0.58300   0.57850   0.11298   Biso      1.000     O          -0.581182           
         O4        1.0000    0.65500   0.03200   0.32406   Biso      1.000     O          -0.665291           
         O5        1.0000    0.61223   0.32110   0.35868   Biso      1.000     O          -0.683951           
         O6        1.0000    0.34830   0.31500   0.34893   Biso      1.000     O          -0.5024430000000001           
         O7        1.0000    0.79819   0.69170   0.33072   Biso      1.000     O          -0.767686           
         O8        1.0000    0.50562   0.24990   0.18506   Biso      1.000     O          -0.559249           
         O9        1.0000    0.85100   0.04790   0.96527   Biso      1.000     O          -0.47049300000000005          
         O10       1.0000    0.84830   0.18500   0.84893   Biso      1.000     O          -0.5024430000000001           
         O11       1.0000    0.11223   0.17890   0.85868   Biso      1.000     O          -0.683951           
         O12       1.0000    0.15500   0.46800   0.82406   Biso      1.000     O          -0.665291           
         O13       1.0000    0.35100   0.45210   0.46527   Biso      1.000     O          -0.47049300000000005          
         O14       1.0000    0.99438   0.74990   0.31494   Biso      1.000     O          -0.559249           
         O15       1.0000    0.49438   0.75010   0.81494   Biso      1.000     O          -0.559249           
         O16       1.0000    0.08300   0.92150   0.61298   Biso      1.000     O          -0.581182           
         O17       1.0000    0.85680   0.31030   0.30822   Biso      1.000     O          -0.746259           
         O18       1.0000    0.91700   0.07850   0.38702   Biso      1.000     O          -0.581182           
         O19       1.0000    0.84500   0.53200   0.17594   Biso      1.000     O          -0.665291           
         O20       1.0000    0.88777   0.82110   0.14132   Biso      1.000     O          -0.683951           
         O21       1.0000    0.15170   0.81500   0.15107   Biso      1.000     O          -0.5024430000000001           
         O22       1.0000    0.14900   0.95210   0.03473   Biso      1.000     O          -0.47049300000000005          
         O23       1.0000    0.20181   0.30830   0.66928   Biso      1.000     O          -0.767686           
         O24       1.0000    0.00562   0.25010   0.68506   Biso      1.000     O          -0.559249           
         O25       1.0000    0.65170   0.68500   0.65107   Biso      1.000     O          -0.5024430000000001           
         O26       1.0000    0.38777   0.67890   0.64132   Biso      1.000     O          -0.683951           
         O27       1.0000    0.34500   0.96800   0.67594   Biso      1.000     O          -0.665291           
         O28       1.0000    0.41700   0.42150   0.88702   Biso      1.000     O          -0.581182           
         O29       1.0000    0.35680   0.18970   0.80822   Biso      1.000     O          -0.746259           
         O30       1.0000    0.29819   0.80830   0.83072   Biso      1.000     O          -0.767686           
         O31       1.0000    0.64900   0.54790   0.53473   Biso      1.000     O          -0.47049300000000005          
         O32       1.0000    0.14320   0.68970   0.69178   Biso      1.000     O          -0.746259           
         Sm1       1.0000    0.82635   0.98002   0.25283   Biso      1.000     Sm          2.11701   
         Sm2       1.0000    0.67365   0.48002   0.24717   Biso      1.000     Sm          2.11701   
         Sm3       1.0000    0.17365   0.01998   0.74717   Biso      1.000     Sm          2.11701   
         Sm4       1.0000    0.32635   0.51998   0.75283   Biso      1.000     Sm          2.11701 