
##########################################################################
#               Crystallographic Information Format file
#               Produced by PyCifRW module
#
#  This is a CIF file.  CIF has been adopted by the International
#  Union of Crystallography as the standard for data archiving and
#  transmission.
#
#  For information on this file format, follow the CIF links at
#  http://www.iucr.org
##########################################################################

data_image0

_cell_length_a                          7.6819
_cell_length_b                          8.8715
_cell_length_c                          10.3205
_cell_angle_alpha                       105.852
_cell_angle_beta                        93.055
_cell_angle_gamma                       105.705
_symmetry_space_group_name_H-M          'P 1'
_symmetry_int_tables_number             1
loop_
  _symmetry_equiv_pos_as_xyz
         'x, y, z' 
loop_
  _atom_site_label
  _atom_site_occupancy
  _atom_site_fract_x
  _atom_site_fract_y
  _atom_site_fract_z
  _atom_site_thermal_displace_type
  _atom_site_B_iso_or_equiv
  _atom_site_type_symbol
  _atom_site_charge
         C1        1.0000    0.70940   0.41440   0.21730   Biso      1.000     C          -0.050123           
         C2        1.0000    0.51540   0.80000   0.70490   Biso      1.000     C          0.640985  
         C3        1.0000    0.53260   0.79460   0.94600   Biso      1.000     C          -0.11540999999999998          
         C4        1.0000    0.47090   0.72700   0.04790   Biso      1.000     C          -0.094124           
         C5        1.0000    0.32170   0.58600   0.01700   Biso      1.000     C          -0.009047           
         C6        1.0000    0.22990   0.51790   0.88500   Biso      1.000     C          -0.100957           
         C7        1.0000    0.29060   0.58560   0.78270   Biso      1.000     C          -0.050123           
         C8        1.0000    0.44420   0.72230   0.81240   Biso      1.000     C          -0.028083999999999998         
         C9        1.0000    0.55580   0.27770   0.18760   Biso      1.000     C          -0.028083999999999998         
         C10       1.0000    0.77010   0.48210   0.11500   Biso      1.000     C          -0.100957           
         C11       1.0000    0.67830   0.41400   0.98300   Biso      1.000     C          -0.009047           
         C12       1.0000    0.52910   0.27300   0.95210   Biso      1.000     C          -0.094125           
         C13       1.0000    0.46740   0.20540   0.05400   Biso      1.000     C          -0.11540999999999998          
         C14       1.0000    0.48460   0.20000   0.29510   Biso      1.000     C          0.640985  
         C15       1.0000    0.80590   0.49790   0.35980   Biso      1.000     C          0.579697  
         C16       1.0000    0.73780   0.49470   0.87630   Biso      1.000     C          0.573778  
         C17       1.0000    0.19410   0.50210   0.64020   Biso      1.000     C          0.5796979999999999  
         C18       1.0000    0.26220   0.50530   0.12370   Biso      1.000     C          0.573778  
         Cd1       1.0000    0.84092   0.61598   0.66792   Biso      1.000     Cd          1.081178  
         Cd2       1.0000    0.50000   0.00000   0.50000   Biso      1.000     Cd          1.079356  
         Cd3       1.0000    0.15908   0.38402   0.33208   Biso      1.000     Cd          1.0811790000000001  
         H1        1.0000    0.46950   0.22310   0.86120   Biso      1.000     H          0.112747  
         H2        1.0000    0.87480   0.57530   0.13550   Biso      1.000     H          0.131831  
         H3        1.0000    0.63490   0.89010   0.96720   Biso      1.000     H          0.125379  
         H4        1.0000    0.53050   0.77690   0.13880   Biso      1.000     H          0.112747  
         H5        1.0000    0.12520   0.42470   0.86450   Biso      1.000     H          0.131831  
         H6        1.0000    0.36510   0.10990   0.03280   Biso      1.000     H          0.125379  
         O1        1.0000    0.86930   0.62380   0.90467   Biso      1.000     O          -0.561967           
         O2        1.0000    0.97690   0.56000   0.37698   Biso      1.000     O          -0.6062489999999999           
         O3        1.0000    0.70740   0.50380   0.45356   Biso      1.000     O          -0.512829           
         O4        1.0000    0.58320   0.12740   0.34053   Biso      1.000     O          -0.534299           
         O5        1.0000    0.33280   0.20590   0.32944   Biso      1.000     O          -0.573734           
         O6        1.0000    0.41680   0.87260   0.65947   Biso      1.000     O          -0.534299           
         O7        1.0000    0.13070   0.37620   0.09533   Biso      1.000     O          -0.561967           
         O8        1.0000    0.02310   0.44000   0.62302   Biso      1.000     O          -0.6062489999999999           
         O9        1.0000    0.29260   0.49620   0.54644   Biso      1.000     O          -0.512829           
         O10       1.0000    0.66720   0.79410   0.67056   Biso      1.000     O          -0.573734           
         O11       1.0000    0.34620   0.56950   0.24416   Biso      1.000     O          -0.59845  
         O12       1.0000    0.65380   0.43050   0.75584   Biso      1.000     O          -0.59845 