
##########################################################################
#               Crystallographic Information Format file
#               Produced by PyCifRW module
#
#  This is a CIF file.  CIF has been adopted by the International
#  Union of Crystallography as the standard for data archiving and
#  transmission.
#
#  For information on this file format, follow the CIF links at
#  http://www.iucr.org
##########################################################################

data_image0

_cell_length_a                          6.822
_cell_length_b                          9.97
_cell_length_c                          10.9102
_cell_angle_alpha                       90
_cell_angle_beta                        90
_cell_angle_gamma                       90
_symmetry_space_group_name_H-M          'P 1'
_symmetry_int_tables_number             1
loop_
  _symmetry_equiv_pos_as_xyz
         'x, y, z' 
loop_
  _atom_site_label
  _atom_site_occupancy
  _atom_site_fract_x
  _atom_site_fract_y
  _atom_site_fract_z
  _atom_site_thermal_displace_type
  _atom_site_B_iso_or_equiv
  _atom_site_type_symbol
  _atom_site_charge
         C1        1.0000    0.34980   0.58443   0.77613   Biso      1.000     C          0.640042  
         C2        1.0000    0.65020   0.08443   0.72387   Biso      1.000     C          0.640039  
         C3        1.0000    0.84130   0.05698   0.65536   Biso      1.000     C          -0.17075  
         C4        1.0000    0.99950   0.86525   0.56488   Biso      1.000     C          -0.20566199999999998          
         C5        1.0000    0.95440   0.71670   0.55189   Biso      1.000     C          0.646547  
         C6        1.0000    0.84980   0.91557   0.22387   Biso      1.000     C          0.640026  
         C7        1.0000    0.65870   0.94302   0.15536   Biso      1.000     C          -0.170743           
         C8        1.0000    0.50050   0.13475   0.06488   Biso      1.000     C          -0.20571199999999998          
         C9        1.0000    0.54560   0.28330   0.05189   Biso      1.000     C          0.646558  
         C10       1.0000    0.15870   0.55698   0.84464   Biso      1.000     C          -0.170722           
         C11       1.0000    0.00050   0.36525   0.93512   Biso      1.000     C          -0.2057   
         C12       1.0000    0.04560   0.21670   0.94811   Biso      1.000     C          0.646559  
         C13       1.0000    0.15020   0.41557   0.27613   Biso      1.000     C          0.640023  
         C14       1.0000    0.34130   0.44302   0.34464   Biso      1.000     C          -0.170758           
         C15       1.0000    0.49950   0.63475   0.43512   Biso      1.000     C          -0.20574  
         C16       1.0000    0.45440   0.78330   0.44811   Biso      1.000     C          0.6465569999999999  
         Co1       1.0000    0.14164   0.70302   0.29004   Biso      1.000     Co          0.9329280000000001  
         Co2       1.0000    0.35836   0.29698   0.79004   Biso      1.000     Co          0.932934  
         Co3       1.0000    0.85836   0.20302   0.20996   Biso      1.000     Co          0.932746  
         Co4       1.0000    0.64164   0.79698   0.70996   Biso      1.000     Co          0.93309   
         H1        1.0000    0.97000   0.91400   0.49100   Biso      1.000     H          0.134729  
         H2        1.0000    0.12600   0.87500   0.57940   Biso      1.000     H          0.14757   
         H3        1.0000    0.62600   0.62500   0.42060   Biso      1.000     H          0.147532  
         H4        1.0000    0.47000   0.58600   0.50900   Biso      1.000     H          0.134691  
         H5        1.0000    0.33600   0.41800   0.42860   Biso      1.000     H          0.133511  
         H6        1.0000    0.87400   0.37500   0.92060   Biso      1.000     H          0.147519  
         H7        1.0000    0.45100   0.39700   0.31020   Biso      1.000     H          0.13337100000000002           
         H8        1.0000    0.83600   0.08200   0.57140   Biso      1.000     H          0.133553  
         H9        1.0000    0.04900   0.60300   0.81020   Biso      1.000     H          0.133356  
         H10       1.0000    0.16400   0.58200   0.92860   Biso      1.000     H          0.133542  
         H11       1.0000    0.37400   0.12500   0.07940   Biso      1.000     H          0.147532  
         H12       1.0000    0.53000   0.08600   0.99100   Biso      1.000     H          0.134681  
         H13       1.0000    0.54900   0.89700   0.18980   Biso      1.000     H          0.133357  
         H14       1.0000    0.66400   0.91800   0.07140   Biso      1.000     H          0.133517  
         H15       1.0000    0.03000   0.41400   0.00900   Biso      1.000     H          0.134696  
         H16       1.0000    0.95100   0.10300   0.68980   Biso      1.000     H          0.13338699999999998           
         O1        1.0000    0.46341   0.34711   0.96757   Biso      1.000     O          -0.554966           
         O2        1.0000    0.95194   0.01017   0.26157   Biso      1.000     O          -0.530944           
         O3        1.0000    0.88922   0.79178   0.23606   Biso      1.000     O          -0.559808           
         O4        1.0000    0.54806   0.98983   0.76157   Biso      1.000     O          -0.530852           
         O5        1.0000    0.83669   0.66324   0.62741   Biso      1.000     O          -0.560508           
         O6        1.0000    0.03659   0.65289   0.46757   Biso      1.000     O          -0.554787           
         O7        1.0000    0.66331   0.33676   0.12741   Biso      1.000     O          -0.560814           
         O8        1.0000    0.61539   0.08238   0.16339   Biso      1.000     O          -0.185772           
         O9        1.0000    0.11539   0.41762   0.83661   Biso      1.000     O          -0.185853           
         O10       1.0000    0.33669   0.83676   0.37259   Biso      1.000     O          -0.5608810000000001           
         O11       1.0000    0.45194   0.48983   0.73843   Biso      1.000     O          -0.53101  
         O12       1.0000    0.96341   0.15289   0.03243   Biso      1.000     O          -0.554936           
         O13       1.0000    0.16331   0.16324   0.87259   Biso      1.000     O          -0.5608770000000001           
         O14       1.0000    0.38461   0.58238   0.33661   Biso      1.000     O          -0.185779           
         O15       1.0000    0.11078   0.29178   0.26394   Biso      1.000     O          -0.559739           
         O16       1.0000    0.04806   0.51017   0.23843   Biso      1.000     O          -0.531013           
         O17       1.0000    0.53659   0.84711   0.53243   Biso      1.000     O          -0.554925           
         O18       1.0000    0.61078   0.20822   0.73606   Biso      1.000     O          -0.559703           
         O19       1.0000    0.38922   0.70822   0.76394   Biso      1.000     O          -0.559755           
         O20       1.0000    0.88461   0.91762   0.66339   Biso      1.000     O          -0.185884 