
##########################################################################
#               Crystallographic Information Format file
#               Produced by PyCifRW module
#
#  This is a CIF file.  CIF has been adopted by the International
#  Union of Crystallography as the standard for data archiving and
#  transmission.
#
#  For information on this file format, follow the CIF links at
#  http://www.iucr.org
##########################################################################

data_image0

_cell_length_a                          8.7796
_cell_length_b                          10.0297
_cell_length_c                          10.1561
_cell_angle_alpha                       119.587
_cell_angle_beta                        115.607
_cell_angle_gamma                       90.0045
_symmetry_space_group_name_H-M          'P 1'
_symmetry_int_tables_number             1
loop_
  _symmetry_equiv_pos_as_xyz
         'x, y, z' 
loop_
  _atom_site_label
  _atom_site_occupancy
  _atom_site_fract_x
  _atom_site_fract_y
  _atom_site_fract_z
  _atom_site_thermal_displace_type
  _atom_site_B_iso_or_equiv
  _atom_site_type_symbol
  _atom_site_charge
         C1        1.0000    0.57360   0.52490   0.54400   Biso      1.000     C          0.556517  
         C2        1.0000    0.09220   0.07550   0.99620   Biso      1.000     C          0.555157  
         C3        1.0000    0.52960   0.98090   0.45600   Biso      1.000     C          0.556619  
         C4        1.0000    0.59600   0.07930   0.00380   Biso      1.000     C          0.553736  
         H1        1.0000    0.60300   0.60660   0.75400   Biso      1.000     H          0.374165  
         H2        1.0000    0.53450   0.42790   0.65920   Biso      1.000     H          0.36941199999999996           
         H3        1.0000    0.12460   0.30590   0.12200   Biso      1.000     H          0.353665  
         H4        1.0000    0.98750   0.21940   0.94380   Biso      1.000     H          0.33418200000000003           
         H5        1.0000    0.34900   0.85260   0.24600   Biso      1.000     H          0.37348400000000004           
         H6        1.0000    0.37530   0.76870   0.34080   Biso      1.000     H          0.369535  
         H7        1.0000    0.50260   0.18390   0.87800   Biso      1.000     H          0.35321199999999997           
         H8        1.0000    0.54370   0.27560   0.05620   Biso      1.000     H          0.333492  
         N1        1.0000    0.70350   0.21720   0.61280   Biso      1.000     N          -0.073977           
         N2        1.0000    0.39750   0.84950   0.32740   Biso      1.000     N          -0.770342           
         N3        1.0000    0.64310   0.00750   0.61060   Biso      1.000     N          -0.35342399999999996          
         N4        1.0000    0.74940   0.15900   0.70560   Biso      1.000     N          -0.07533  
         N5        1.0000    0.57010   0.52210   0.67260   Biso      1.000     N          -0.769837           
         N6        1.0000    0.65720   0.86240   0.97440   Biso      1.000     N          -0.065326           
         N7        1.0000    0.56400   0.10980   0.45280   Biso      1.000     N          -0.342407           
         N8        1.0000    0.59540   0.07130   0.13120   Biso      1.000     N          -0.347059           
         N9        1.0000    0.63560   0.93080   0.10640   Biso      1.000     N          -0.077129           
         N10       1.0000    0.08040   0.21760   0.01780   Biso      1.000     N          -0.750556           
         N11       1.0000    0.56260   0.19980   0.98220   Biso      1.000     N          -0.74865  
         N12       1.0000    0.96420   0.94010   0.86880   Biso      1.000     N          -0.346004           
         N13       1.0000    0.18280   0.88800   0.02560   Biso      1.000     N          -0.06485  
         N14       1.0000    0.02920   0.82440   0.89360   Biso      1.000     N          -0.077592           
         N15       1.0000    0.54380   0.45340   0.29440   Biso      1.000     N          -0.076076           
         N16       1.0000    0.53250   0.39690   0.38940   Biso      1.000     N          -0.353615           
         N17       1.0000    0.63340   0.95280   0.90500   Biso      1.000     N          -0.35496700000000003          
         N18       1.0000    0.59070   0.60440   0.38720   Biso      1.000     N          -0.073451           
         N19       1.0000    0.61120   0.65700   0.54720   Biso      1.000     N          -0.342781           
         N20       1.0000    0.22840   0.04780   0.09500   Biso      1.000     N          -0.35570100000000004          
         Zn1       1.0000    0.47961   0.16314   0.27542   Biso      1.000     Zn          0.667946  
         Zn2       1.0000    0.70419   0.88772   0.72458   Biso      1.000     Zn          0.667952 