
##########################################################################
#               Crystallographic Information Format file
#               Produced by PyCifRW module
#
#  This is a CIF file.  CIF has been adopted by the International
#  Union of Crystallography as the standard for data archiving and
#  transmission.
#
#  For information on this file format, follow the CIF links at
#  http://www.iucr.org
##########################################################################

data_image0

_cell_length_a                          17.3358
_cell_length_b                          11.6348
_cell_length_c                          18.3198
_cell_angle_alpha                       90
_cell_angle_beta                        110.426
_cell_angle_gamma                       90
_symmetry_space_group_name_H-M          'P 1'
_symmetry_int_tables_number             1
loop_
  _symmetry_equiv_pos_as_xyz
         'x, y, z' 
loop_
  _atom_site_label
  _atom_site_occupancy
  _atom_site_fract_x
  _atom_site_fract_y
  _atom_site_fract_z
  _atom_site_thermal_displace_type
  _atom_site_B_iso_or_equiv
  _atom_site_type_symbol
  _atom_site_charge
         C1        1.0000    0.88390   0.88880   0.70480   Biso      1.000     C          0.68661   
         C2        1.0000    0.89580   0.15930   0.90820   Biso      1.000     C          0.691154  
         C3        1.0000    0.79040   0.73630   0.73330   Biso      1.000     C          -0.106515           
         C4        1.0000    0.79040   0.26370   0.23330   Biso      1.000     C          -0.106515           
         C5        1.0000    0.72010   0.67060   0.69290   Biso      1.000     C          -0.098638           
         C6        1.0000    0.72010   0.32940   0.19290   Biso      1.000     C          -0.098638           
         C7        1.0000    0.70330   0.16800   0.54970   Biso      1.000     C          -0.11442  
         C8        1.0000    0.77330   0.11310   0.54460   Biso      1.000     C          -0.102074           
         C9        1.0000    0.73590   0.31410   0.74480   Biso      1.000     C          -0.11852  
         C10       1.0000    0.70330   0.83200   0.04970   Biso      1.000     C          -0.11442  
         C11       1.0000    0.11610   0.88880   0.79520   Biso      1.000     C          0.686611  
         C12       1.0000    0.29670   0.16800   0.95030   Biso      1.000     C          -0.11442  
         C13       1.0000    0.37570   0.41290   0.71610   Biso      1.000     C          0.686728  
         C14       1.0000    0.29670   0.83200   0.45030   Biso      1.000     C          -0.11442  
         C15       1.0000    0.18610   0.80750   0.81440   Biso      1.000     C          -0.146181           
         C16       1.0000    0.62430   0.41290   0.78390   Biso      1.000     C          0.686727  
         C17       1.0000    0.87130   0.13100   0.46800   Biso      1.000     C          0.657937  
         C18       1.0000    0.61990   0.64520   0.55210   Biso      1.000     C          0.666658  
         C19       1.0000    0.88390   0.11120   0.20480   Biso      1.000     C          0.68661   
         C20       1.0000    0.69100   0.30670   0.11480   Biso      1.000     C          -0.105791           
         C21       1.0000    0.60960   0.66010   0.99390   Biso      1.000     C          0.690716  
         C22       1.0000    0.80660   0.24430   0.77760   Biso      1.000     C          -0.109203           
         C23       1.0000    0.80660   0.75570   0.27760   Biso      1.000     C          -0.109203           
         C24       1.0000    0.89580   0.84070   0.40820   Biso      1.000     C          0.691154  
         C25       1.0000    0.77330   0.88690   0.04460   Biso      1.000     C          -0.102074           
         C26       1.0000    0.73590   0.68590   0.24480   Biso      1.000     C          -0.11852  
         C27       1.0000    0.67640   0.74270   0.99830   Biso      1.000     C          -0.116909           
         C28       1.0000    0.79850   0.83900   0.98810   Biso      1.000     C          -0.118083           
         C29       1.0000    0.82550   0.77320   0.35560   Biso      1.000     C          -0.106363           
         C30       1.0000    0.70070   0.65390   0.29780   Biso      1.000     C          -0.145733           
         C31       1.0000    0.81390   0.19250   0.18560   Biso      1.000     C          -0.146174           
         C32       1.0000    0.60960   0.33990   0.49390   Biso      1.000     C          0.690716  
         C33       1.0000    0.69100   0.69330   0.61480   Biso      1.000     C          -0.105791           
         C34       1.0000    0.62430   0.58710   0.28390   Biso      1.000     C          0.686728  
         C35       1.0000    0.27990   0.32940   0.30710   Biso      1.000     C          -0.098638           
         C36       1.0000    0.61990   0.35480   0.05210   Biso      1.000     C          0.666658  
         C37       1.0000    0.29930   0.34610   0.70220   Biso      1.000     C          -0.145738           
         C38       1.0000    0.17450   0.22680   0.64440   Biso      1.000     C          -0.106368           
         C39       1.0000    0.11610   0.11120   0.29520   Biso      1.000     C          0.68661   
         C40       1.0000    0.10420   0.15930   0.59180   Biso      1.000     C          0.691155  
         C41       1.0000    0.19340   0.24430   0.72240   Biso      1.000     C          -0.109199           
         C42       1.0000    0.67640   0.25730   0.49830   Biso      1.000     C          -0.116909           
         C43       1.0000    0.39040   0.33990   0.00610   Biso      1.000     C          0.690716  
         C44       1.0000    0.30900   0.69330   0.88520   Biso      1.000     C          -0.105804           
         C45       1.0000    0.38010   0.64520   0.94790   Biso      1.000     C          0.666659  
         C46       1.0000    0.12870   0.13100   0.03200   Biso      1.000     C          0.657937  
         C47       1.0000    0.22670   0.11310   0.95540   Biso      1.000     C          -0.102074           
         C48       1.0000    0.79850   0.16100   0.48810   Biso      1.000     C          -0.118083           
         C49       1.0000    0.20960   0.73630   0.76670   Biso      1.000     C          -0.106509           
         C50       1.0000    0.82550   0.22680   0.85560   Biso      1.000     C          -0.106363           
         C51       1.0000    0.27990   0.67060   0.80710   Biso      1.000     C          -0.098626           
         C52       1.0000    0.70070   0.34610   0.79780   Biso      1.000     C          -0.145733           
         C53       1.0000    0.81390   0.80750   0.68560   Biso      1.000     C          -0.146174           
         C54       1.0000    0.37570   0.58710   0.21610   Biso      1.000     C          0.686727  
         C55       1.0000    0.20960   0.26370   0.26670   Biso      1.000     C          -0.106515           
         C56       1.0000    0.87130   0.86900   0.96800   Biso      1.000     C          0.657937  
         C57       1.0000    0.18610   0.19250   0.31440   Biso      1.000     C          -0.146174           
         C58       1.0000    0.22670   0.88690   0.45540   Biso      1.000     C          -0.102074           
         C59       1.0000    0.12870   0.86900   0.53200   Biso      1.000     C          0.657937  
         C60       1.0000    0.38010   0.35480   0.44790   Biso      1.000     C          0.666658  
         C61       1.0000    0.30900   0.30670   0.38520   Biso      1.000     C          -0.105791           
         C62       1.0000    0.39040   0.66010   0.50610   Biso      1.000     C          0.690716  
         C63       1.0000    0.20150   0.16100   0.01190   Biso      1.000     C          -0.118083           
         C64       1.0000    0.26410   0.31410   0.75520   Biso      1.000     C          -0.118515           
         C65       1.0000    0.19340   0.75570   0.22240   Biso      1.000     C          -0.109203           
         C66       1.0000    0.32360   0.25730   0.00170   Biso      1.000     C          -0.116909           
         C67       1.0000    0.26410   0.68590   0.25520   Biso      1.000     C          -0.11852  
         C68       1.0000    0.32360   0.74270   0.50170   Biso      1.000     C          -0.116909           
         C69       1.0000    0.20150   0.83900   0.51190   Biso      1.000     C          -0.118083           
         C70       1.0000    0.17450   0.77320   0.14440   Biso      1.000     C          -0.106363           
         C71       1.0000    0.29930   0.65390   0.20220   Biso      1.000     C          -0.145733           
         C72       1.0000    0.10420   0.84070   0.09180   Biso      1.000     C          0.691154  
         Dy1       1.0000    0.00104   0.91675   0.90541   Biso      1.000     Dy          2.131264  
         Dy2       1.0000    0.49762   0.43039   0.60096   Biso      1.000     Dy          2.131696  
         Dy3       1.0000    0.99896   0.08325   0.09459   Biso      1.000     Dy          2.131265  
         Dy4       1.0000    0.50238   0.43039   0.89904   Biso      1.000     Dy          2.131696  
         Dy5       1.0000    0.49762   0.56961   0.10096   Biso      1.000     Dy          2.131695  
         Dy6       1.0000    0.00104   0.08325   0.40541   Biso      1.000     Dy          2.131265  
         Dy7       1.0000    0.50238   0.56961   0.39904   Biso      1.000     Dy          2.131696  
         Dy8       1.0000    0.99896   0.91675   0.59459   Biso      1.000     Dy          2.131265  
         H1        1.0000    0.79950   0.05160   0.57580   Biso      1.000     H          0.134242  
         H2        1.0000    0.81780   0.73160   0.78680   Biso      1.000     H          0.136974  
         H3        1.0000    0.71550   0.33580   0.69260   Biso      1.000     H          0.129139  
         H4        1.0000    0.69630   0.61770   0.71670   Biso      1.000     H          0.142142  
         H5        1.0000    0.67780   0.14610   0.58450   Biso      1.000     H          0.136956  
         H6        1.0000    0.28450   0.33580   0.80740   Biso      1.000     H          0.129138  
         H7        1.0000    0.16320   0.21370   0.75090   Biso      1.000     H          0.142995  
         H8        1.0000    0.20050   0.05160   0.92420   Biso      1.000     H          0.134242  
         H9        1.0000    0.18220   0.73160   0.71320   Biso      1.000     H          0.136974  
         H10       1.0000    0.30370   0.61770   0.78330   Biso      1.000     H          0.142141  
         H11       1.0000    0.83680   0.21370   0.74910   Biso      1.000     H          0.142995  
         H12       1.0000    0.67780   0.85390   0.08450   Biso      1.000     H          0.136956  
         H13       1.0000    0.32220   0.14610   0.91550   Biso      1.000     H          0.136956  
         H14       1.0000    0.32220   0.85390   0.41550   Biso      1.000     H          0.136956  
         H15       1.0000    0.30370   0.38230   0.28330   Biso      1.000     H          0.142142  
         H16       1.0000    0.18220   0.26840   0.21320   Biso      1.000     H          0.136974  
         H17       1.0000    0.20050   0.94840   0.42420   Biso      1.000     H          0.134242  
         H18       1.0000    0.16320   0.78630   0.25090   Biso      1.000     H          0.142995  
         H19       1.0000    0.71550   0.66420   0.19260   Biso      1.000     H          0.129139  
         H20       1.0000    0.79950   0.94840   0.07580   Biso      1.000     H          0.134242  
         H21       1.0000    0.81780   0.26840   0.28680   Biso      1.000     H          0.136974  
         H22       1.0000    0.69630   0.38230   0.21670   Biso      1.000     H          0.142142  
         H23       1.0000    0.28450   0.66420   0.30740   Biso      1.000     H          0.129139  
         H24       1.0000    0.83680   0.78630   0.24910   Biso      1.000     H          0.142995  
         O1        1.0000    0.11628   0.81790   0.58756   Biso      1.000     O          -0.657819           
         O2        1.0000    0.40477   0.46270   0.78222   Biso      1.000     O          -0.711994           
         O3        1.0000    0.07788   0.90950   0.72507   Biso      1.000     O          -0.663094           
         O4        1.0000    0.07997   0.05350   0.99354   Biso      1.000     O          -0.743982           
         O5        1.0000    0.40830   0.41360   0.05928   Biso      1.000     O          -0.661351           
         O6        1.0000    0.07160   0.08940   0.62457   Biso      1.000     O          -0.645743           
         O7        1.0000    0.42235   0.32840   0.95477   Biso      1.000     O          -0.69431  
         O8        1.0000    0.42380   0.56770   0.93359   Biso      1.000     O          -0.731664           
         O9        1.0000    0.08277   0.17820   0.51959   Biso      1.000     O          -0.710054           
         O10       1.0000    0.40533   0.58200   0.16394   Biso      1.000     O          -0.669418           
         O11       1.0000    0.39578   0.68460   0.01594   Biso      1.000     O          -0.667757           
         O12       1.0000    0.11628   0.18210   0.08756   Biso      1.000     O          -0.657819           
         O13       1.0000    0.10080   0.06630   0.35163   Biso      1.000     O          -0.701951           
         O14       1.0000    0.40477   0.53730   0.28222   Biso      1.000     O          -0.711994           
         O15       1.0000    0.07788   0.09050   0.22507   Biso      1.000     O          -0.663094           
         O16       1.0000    0.07997   0.94650   0.49354   Biso      1.000     O          -0.743982           
         O17       1.0000    0.40830   0.58640   0.55928   Biso      1.000     O          -0.661351           
         O18       1.0000    0.10080   0.93370   0.85163   Biso      1.000     O          -0.701951           
         O19       1.0000    0.07160   0.91060   0.12457   Biso      1.000     O          -0.645743           
         O20       1.0000    0.42235   0.67160   0.45477   Biso      1.000     O          -0.69431  
         O21       1.0000    0.42380   0.43230   0.43359   Biso      1.000     O          -0.731664           
         O22       1.0000    0.08277   0.82180   0.01959   Biso      1.000     O          -0.710054           
         O23       1.0000    0.39578   0.31540   0.51594   Biso      1.000     O          -0.667757           
         O24       1.0000    0.40533   0.41800   0.66394   Biso      1.000     O          -0.669418           
         O25       1.0000    0.59170   0.41360   0.44072   Biso      1.000     O          -0.661351           
         O26       1.0000    0.57620   0.43230   0.06641   Biso      1.000     O          -0.731664           
         O27       1.0000    0.59523   0.46270   0.71778   Biso      1.000     O          -0.711994           
         O28       1.0000    0.60422   0.68460   0.48406   Biso      1.000     O          -0.667757           
         O29       1.0000    0.88372   0.18210   0.41244   Biso      1.000     O          -0.657819           
         O30       1.0000    0.89920   0.93370   0.64837   Biso      1.000     O          -0.701951           
         O31       1.0000    0.59467   0.41800   0.83606   Biso      1.000     O          -0.669418           
         O32       1.0000    0.57620   0.56770   0.56641   Biso      1.000     O          -0.731664           
         O33       1.0000    0.57765   0.32840   0.54523   Biso      1.000     O          -0.69431  
         O34       1.0000    0.92003   0.05350   0.50646   Biso      1.000     O          -0.743982           
         O35       1.0000    0.88372   0.81790   0.91244   Biso      1.000     O          -0.657819           
         O36       1.0000    0.60422   0.31540   0.98406   Biso      1.000     O          -0.667757           
         O37       1.0000    0.91723   0.82180   0.48041   Biso      1.000     O          -0.710054           
         O38       1.0000    0.92212   0.90950   0.77493   Biso      1.000     O          -0.663094           
         O39       1.0000    0.91723   0.17820   0.98041   Biso      1.000     O          -0.710054           
         O40       1.0000    0.92840   0.91060   0.37543   Biso      1.000     O          -0.645743           
         O41       1.0000    0.59170   0.58640   0.94072   Biso      1.000     O          -0.661351           
         O42       1.0000    0.92840   0.08940   0.87543   Biso      1.000     O          -0.645743           
         O43       1.0000    0.92003   0.94650   0.00646   Biso      1.000     O          -0.743982           
         O44       1.0000    0.92212   0.09050   0.27493   Biso      1.000     O          -0.663094           
         O45       1.0000    0.59523   0.53730   0.21778   Biso      1.000     O          -0.711994           
         O46       1.0000    0.89920   0.06630   0.14837   Biso      1.000     O          -0.701951           
         O47       1.0000    0.59467   0.58200   0.33606   Biso      1.000     O          -0.669418           
         O48       1.0000    0.57765   0.67160   0.04523   Biso      1.000     O          -0.69431  
         S1        1.0000    0.26439   0.72660   0.55935   Biso      1.000     S          0.169677  
         S2        1.0000    0.25028   0.20519   0.41012   Biso      1.000     S          0.151474  
         S3        1.0000    0.24476   0.70743   0.11032   Biso      1.000     S          0.161198  
         S4        1.0000    0.25028   0.79481   0.91012   Biso      1.000     S          0.151477  
         S5        1.0000    0.75524   0.29257   0.88968   Biso      1.000     S          0.161198  
         S6        1.0000    0.74972   0.79481   0.58988   Biso      1.000     S          0.151474  
         S7        1.0000    0.75524   0.70743   0.38968   Biso      1.000     S          0.161198  
         S8        1.0000    0.73561   0.72660   0.94065   Biso      1.000     S          0.169677  
         S9        1.0000    0.74972   0.20519   0.08988   Biso      1.000     S          0.151474  
         S10       1.0000    0.24476   0.29257   0.61032   Biso      1.000     S          0.161199  
         S11       1.0000    0.73561   0.27340   0.44065   Biso      1.000     S          0.169677  
         S12       1.0000    0.26439   0.27340   0.05935   Biso      1.000     S          0.169677 