
##########################################################################
#               Crystallographic Information Format file
#               Produced by PyCifRW module
#
#  This is a CIF file.  CIF has been adopted by the International
#  Union of Crystallography as the standard for data archiving and
#  transmission.
#
#  For information on this file format, follow the CIF links at
#  http://www.iucr.org
##########################################################################

data_image0

_cell_length_a                          9.1555
_cell_length_b                          11.747
_cell_length_c                          11.5381
_cell_angle_alpha                       90
_cell_angle_beta                        90
_cell_angle_gamma                       90
_symmetry_space_group_name_H-M          'P 1'
_symmetry_int_tables_number             1
loop_
  _symmetry_equiv_pos_as_xyz
         'x, y, z' 
loop_
  _atom_site_label
  _atom_site_occupancy
  _atom_site_fract_x
  _atom_site_fract_y
  _atom_site_fract_z
  _atom_site_thermal_displace_type
  _atom_site_B_iso_or_equiv
  _atom_site_type_symbol
  _atom_site_charge
         C1        1.0000    0.87880   0.50040   0.15060   Biso      1.000     C          0.558562  
         C2        1.0000    0.12120   0.49960   0.65060   Biso      1.000     C          0.558562  
         C3        1.0000    0.96520   0.49700   0.61200   Biso      1.000     C          0.13910899999999998           
         C4        1.0000    0.14190   0.25600   0.36590   Biso      1.000     C          0.552172  
         C5        1.0000    0.29630   0.29390   0.37020   Biso      1.000     C          0.136767  
         C6        1.0000    0.03480   0.50300   0.11200   Biso      1.000     C          0.13910799999999998           
         C7        1.0000    0.85810   0.74400   0.86590   Biso      1.000     C          0.552171  
         C8        1.0000    0.70370   0.70610   0.87020   Biso      1.000     C          0.136759  
         C9        1.0000    0.79630   0.20610   0.87020   Biso      1.000     C          0.13676300000000002           
         C10       1.0000    0.64190   0.24400   0.86590   Biso      1.000     C          0.552172  
         C11       1.0000    0.46520   0.00300   0.11200   Biso      1.000     C          0.139106  
         C12       1.0000    0.62120   0.00040   0.15060   Biso      1.000     C          0.558562  
         C13       1.0000    0.20370   0.79390   0.37020   Biso      1.000     C          0.136767  
         C14       1.0000    0.35810   0.75600   0.36590   Biso      1.000     C          0.552172  
         C15       1.0000    0.53480   0.99700   0.61200   Biso      1.000     C          0.13910799999999998           
         C16       1.0000    0.37880   0.99960   0.65060   Biso      1.000     C          0.558562  
         Cd1       1.0000    0.12649   0.94003   0.84680   Biso      1.000     Cd          0.959455  
         Cd2       1.0000    0.62649   0.55997   0.34680   Biso      1.000     Cd          0.959449  
         Cd3       1.0000    0.87028   0.46879   0.87740   Biso      1.000     Cd          0.844031  
         Cd4       1.0000    0.37351   0.44003   0.84680   Biso      1.000     Cd          0.9594530000000001  
         Cd5       1.0000    0.37028   0.03121   0.37740   Biso      1.000     Cd          0.844038  
         Cd6       1.0000    0.87351   0.05997   0.34680   Biso      1.000     Cd          0.959449  
         Cd7       1.0000    0.62972   0.96879   0.87740   Biso      1.000     Cd          0.844031  
         Cd8       1.0000    0.12972   0.53121   0.37740   Biso      1.000     Cd          0.844038  
         N1        1.0000    0.47220   0.70530   0.87730   Biso      1.000     N          -0.073488           
         N2        1.0000    0.58600   0.77380   0.87710   Biso      1.000     N          -0.20044  
         N3        1.0000    0.07720   0.48740   0.00360   Biso      1.000     N          -0.184572           
         N4        1.0000    0.21790   0.50120   0.00360   Biso      1.000     N          -0.057395           
         N5        1.0000    0.26520   0.52520   0.10850   Biso      1.000     N          -0.090007           
         N6        1.0000    0.14960   0.52830   0.17920   Biso      1.000     N          -0.20413599999999998          
         N7        1.0000    0.33480   0.40350   0.36690   Biso      1.000     N          -0.18518800000000002          
         N8        1.0000    0.41400   0.22620   0.37710   Biso      1.000     N          -0.200477           
         N9        1.0000    0.52780   0.29470   0.37730   Biso      1.000     N          -0.07345800000000001          
         N10       1.0000    0.92280   0.51260   0.50360   Biso      1.000     N          -0.18457300000000001          
         N11       1.0000    0.78210   0.49880   0.50360   Biso      1.000     N          -0.057395           
         N12       1.0000    0.73480   0.47480   0.60850   Biso      1.000     N          -0.090008           
         N13       1.0000    0.85040   0.47170   0.67920   Biso      1.000     N          -0.20413599999999998          
         N14       1.0000    0.51910   0.59840   0.87280   Biso      1.000     N          -0.07101  
         N15       1.0000    0.48090   0.40160   0.37280   Biso      1.000     N          -0.070967           
         N16       1.0000    0.66520   0.59650   0.86690   Biso      1.000     N          -0.185142           
         N17       1.0000    0.08600   0.72620   0.37710   Biso      1.000     N          -0.20048  
         N18       1.0000    0.76520   0.97480   0.60850   Biso      1.000     N          -0.090045           
         N19       1.0000    0.64960   0.97170   0.67920   Biso      1.000     N          -0.204131           
         N20       1.0000    0.83480   0.09650   0.86690   Biso      1.000     N          -0.185183           
         N21       1.0000    0.98090   0.09840   0.87280   Biso      1.000     N          -0.070996           
         N22       1.0000    0.02780   0.20530   0.87730   Biso      1.000     N          -0.073463           
         N23       1.0000    0.91400   0.27380   0.87710   Biso      1.000     N          -0.200442           
         N24       1.0000    0.28210   0.00120   0.00360   Biso      1.000     N          -0.057426           
         N25       1.0000    0.23480   0.02520   0.10850   Biso      1.000     N          -0.090003           
         N26       1.0000    0.42280   0.98740   0.00360   Biso      1.000     N          -0.184542           
         N27       1.0000    0.16520   0.90350   0.36690   Biso      1.000     N          -0.185184           
         N28       1.0000    0.01910   0.90160   0.37280   Biso      1.000     N          -0.071    
         N29       1.0000    0.97220   0.79470   0.37730   Biso      1.000     N          -0.073428           
         N30       1.0000    0.57720   0.01260   0.50360   Biso      1.000     N          -0.184577           
         N31       1.0000    0.71790   0.99880   0.50360   Biso      1.000     N          -0.057353999999999995         
         N32       1.0000    0.35040   0.02830   0.17920   Biso      1.000     N          -0.20413599999999998          
         O1        1.0000    0.95020   0.66440   0.86180   Biso      1.000     O          -0.536936           
         O2        1.0000    0.11890   0.15030   0.37040   Biso      1.000     O          -0.5248729999999999           
         O3        1.0000    0.04980   0.33560   0.36180   Biso      1.000     O          -0.536936           
         O4        1.0000    0.85320   0.52510   0.25490   Biso      1.000     O          -0.5264409999999999           
         O5        1.0000    0.78590   0.48010   0.07200   Biso      1.000     O          -0.5356449999999999           
         O6        1.0000    0.88110   0.84970   0.87040   Biso      1.000     O          -0.5248729999999999           
         O7        1.0000    0.35320   0.97490   0.75490   Biso      1.000     O          -0.526442           
         O8        1.0000    0.54980   0.16440   0.86180   Biso      1.000     O          -0.536936           
         O9        1.0000    0.38110   0.65030   0.37040   Biso      1.000     O          -0.5248729999999999           
         O10       1.0000    0.45020   0.83560   0.36180   Biso      1.000     O          -0.536936           
         O11       1.0000    0.64680   0.02510   0.25490   Biso      1.000     O          -0.5264409999999999           
         O12       1.0000    0.71410   0.98010   0.07200   Biso      1.000     O          -0.535644           
         O13       1.0000    0.61890   0.34970   0.87040   Biso      1.000     O          -0.524875           
         O14       1.0000    0.21410   0.51990   0.57200   Biso      1.000     O          -0.535644           
         O15       1.0000    0.28590   0.01990   0.57200   Biso      1.000     O          -0.535644           
         O16       1.0000    0.14680   0.47490   0.75490   Biso      1.000     O          -0.5264409999999999 