
##########################################################################
#               Crystallographic Information Format file
#               Produced by PyCifRW module
#
#  This is a CIF file.  CIF has been adopted by the International
#  Union of Crystallography as the standard for data archiving and
#  transmission.
#
#  For information on this file format, follow the CIF links at
#  http://www.iucr.org
##########################################################################

data_image0

_cell_length_a                          17.3778
_cell_length_b                          11.6404
_cell_length_c                          18.3475
_cell_angle_alpha                       90
_cell_angle_beta                        110.413
_cell_angle_gamma                       90
_symmetry_space_group_name_H-M          'P 1'
_symmetry_int_tables_number             1
loop_
  _symmetry_equiv_pos_as_xyz
         'x, y, z' 
loop_
  _atom_site_label
  _atom_site_occupancy
  _atom_site_fract_x
  _atom_site_fract_y
  _atom_site_fract_z
  _atom_site_thermal_displace_type
  _atom_site_B_iso_or_equiv
  _atom_site_type_symbol
  _atom_site_charge
         C1        1.0000    0.88370   0.11180   0.70560   Biso      1.000     C          0.6851109999999999  
         C2        1.0000    0.87090   0.86900   0.46750   Biso      1.000     C          0.655135  
         C3        1.0000    0.77370   0.88650   0.54450   Biso      1.000     C          -0.102004           
         C4        1.0000    0.61910   0.64700   0.05150   Biso      1.000     C          0.662378  
         C5        1.0000    0.61910   0.35300   0.55150   Biso      1.000     C          0.662378  
         C6        1.0000    0.71980   0.32910   0.69210   Biso      1.000     C          -0.09965399999999999          
         C7        1.0000    0.71980   0.67090   0.19210   Biso      1.000     C          -0.099655           
         C8        1.0000    0.82580   0.22860   0.35520   Biso      1.000     C          -0.10756900000000001          
         C9        1.0000    0.70450   0.83120   0.55030   Biso      1.000     C          -0.11273699999999999          
         C10       1.0000    0.69110   0.30620   0.61420   Biso      1.000     C          -0.10678800000000001          
         C11       1.0000    0.79090   0.26410   0.73310   Biso      1.000     C          -0.10891700000000001          
         C12       1.0000    0.62510   0.41260   0.28350   Biso      1.000     C          0.684002  
         C13       1.0000    0.11630   0.11180   0.79440   Biso      1.000     C          0.6851119999999999  
         C14       1.0000    0.20910   0.73590   0.26690   Biso      1.000     C          -0.108918           
         C15       1.0000    0.30890   0.69380   0.38580   Biso      1.000     C          -0.106797           
         C16       1.0000    0.61060   0.65990   0.49420   Biso      1.000     C          0.68826   
         C17       1.0000    0.37490   0.41260   0.21650   Biso      1.000     C          0.684001  
         C18       1.0000    0.67720   0.74190   0.49860   Biso      1.000     C          -0.117621           
         C19       1.0000    0.70160   0.34640   0.29830   Biso      1.000     C          -0.147049           
         C20       1.0000    0.67720   0.25810   0.99860   Biso      1.000     C          -0.117622           
         C21       1.0000    0.89640   0.83890   0.90790   Biso      1.000     C          0.687326  
         C22       1.0000    0.79860   0.83900   0.48760   Biso      1.000     C          -0.11800899999999999          
         C23       1.0000    0.73650   0.68460   0.74490   Biso      1.000     C          -0.117051           
         C24       1.0000    0.80700   0.24610   0.27740   Biso      1.000     C          -0.111746           
         C25       1.0000    0.80700   0.75390   0.77740   Biso      1.000     C          -0.111748           
         C26       1.0000    0.89640   0.16110   0.40790   Biso      1.000     C          0.687326  
         C27       1.0000    0.79860   0.16100   0.98760   Biso      1.000     C          -0.118013           
         C28       1.0000    0.61060   0.34010   0.99420   Biso      1.000     C          0.68826   
         C29       1.0000    0.77370   0.11350   0.04450   Biso      1.000     C          -0.102    
         C30       1.0000    0.81350   0.80730   0.18500   Biso      1.000     C          -0.14757699999999999          
         C31       1.0000    0.62510   0.58740   0.78350   Biso      1.000     C          0.684001  
         C32       1.0000    0.73650   0.31540   0.24490   Biso      1.000     C          -0.11704500000000001          
         C33       1.0000    0.88370   0.88820   0.20560   Biso      1.000     C          0.6851119999999999  
         C34       1.0000    0.70160   0.65360   0.79830   Biso      1.000     C          -0.147042           
         C35       1.0000    0.29550   0.16880   0.44970   Biso      1.000     C          -0.11273699999999999          
         C36       1.0000    0.18650   0.19270   0.81500   Biso      1.000     C          -0.14757699999999999          
         C37       1.0000    0.28020   0.67090   0.30790   Biso      1.000     C          -0.09964400000000001          
         C38       1.0000    0.26350   0.31540   0.25510   Biso      1.000     C          -0.117052           
         C39       1.0000    0.81350   0.19270   0.68500   Biso      1.000     C          -0.14757  
         C40       1.0000    0.10360   0.16110   0.09210   Biso      1.000     C          0.687326  
         C41       1.0000    0.32280   0.74190   0.00140   Biso      1.000     C          -0.117622           
         C42       1.0000    0.17420   0.22860   0.14480   Biso      1.000     C          -0.10756900000000001          
         C43       1.0000    0.12910   0.86900   0.03250   Biso      1.000     C          0.655135  
         C44       1.0000    0.11630   0.88820   0.29440   Biso      1.000     C          0.6851109999999999  
         C45       1.0000    0.22630   0.88650   0.95550   Biso      1.000     C          -0.102004           
         C46       1.0000    0.38090   0.35300   0.94850   Biso      1.000     C          0.662378  
         C47       1.0000    0.28020   0.32910   0.80790   Biso      1.000     C          -0.099655           
         C48       1.0000    0.79090   0.73590   0.23310   Biso      1.000     C          -0.10890999999999999          
         C49       1.0000    0.29550   0.83120   0.94970   Biso      1.000     C          -0.11273599999999999          
         C50       1.0000    0.20910   0.26410   0.76690   Biso      1.000     C          -0.10890999999999999          
         C51       1.0000    0.30890   0.30620   0.88580   Biso      1.000     C          -0.10678699999999999          
         C52       1.0000    0.69110   0.69380   0.11420   Biso      1.000     C          -0.10678699999999999          
         C53       1.0000    0.70450   0.16880   0.05030   Biso      1.000     C          -0.11273699999999999          
         C54       1.0000    0.37490   0.58740   0.71650   Biso      1.000     C          0.684001  
         C55       1.0000    0.18650   0.80730   0.31500   Biso      1.000     C          -0.14757  
         C56       1.0000    0.38090   0.64700   0.44850   Biso      1.000     C          0.662379  
         C57       1.0000    0.38940   0.65990   0.00580   Biso      1.000     C          0.68826   
         C58       1.0000    0.22630   0.11350   0.45550   Biso      1.000     C          -0.102004           
         C59       1.0000    0.12910   0.13100   0.53250   Biso      1.000     C          0.655135  
         C60       1.0000    0.17420   0.77140   0.64480   Biso      1.000     C          -0.10756900000000001          
         C61       1.0000    0.32280   0.25810   0.50140   Biso      1.000     C          -0.117621           
         C62       1.0000    0.10360   0.83890   0.59210   Biso      1.000     C          0.687326  
         C63       1.0000    0.29840   0.34640   0.20170   Biso      1.000     C          -0.147042           
         C64       1.0000    0.26350   0.68460   0.75510   Biso      1.000     C          -0.117052           
         C65       1.0000    0.20140   0.83900   0.01240   Biso      1.000     C          -0.11800899999999999          
         C66       1.0000    0.19300   0.75390   0.72260   Biso      1.000     C          -0.111746           
         C67       1.0000    0.20140   0.16100   0.51240   Biso      1.000     C          -0.11800899999999999          
         C68       1.0000    0.29840   0.65360   0.70170   Biso      1.000     C          -0.147042           
         C69       1.0000    0.38940   0.34010   0.50580   Biso      1.000     C          0.68826   
         C70       1.0000    0.19300   0.24610   0.22260   Biso      1.000     C          -0.111746           
         C71       1.0000    0.82580   0.77140   0.85520   Biso      1.000     C          -0.10756600000000001          
         C72       1.0000    0.87090   0.13100   0.96750   Biso      1.000     C          0.655135  
         H1        1.0000    0.81880   0.73050   0.28640   Biso      1.000     H          0.13886099999999998           
         H2        1.0000    0.71610   0.33750   0.19290   Biso      1.000     H          0.129197  
         H3        1.0000    0.79990   0.94820   0.57540   Biso      1.000     H          0.134627  
         H4        1.0000    0.69550   0.38150   0.71560   Biso      1.000     H          0.141351  
         H5        1.0000    0.67950   0.85270   0.58560   Biso      1.000     H          0.136245  
         H6        1.0000    0.16280   0.21580   0.25110   Biso      1.000     H          0.14408800000000002           
         H7        1.0000    0.28390   0.33750   0.30710   Biso      1.000     H          0.129197  
         H8        1.0000    0.20010   0.94820   0.92460   Biso      1.000     H          0.134627  
         H9        1.0000    0.30450   0.38150   0.78440   Biso      1.000     H          0.141351  
         H10       1.0000    0.32050   0.85270   0.91440   Biso      1.000     H          0.136244  
         H11       1.0000    0.83720   0.21580   0.24890   Biso      1.000     H          0.14408800000000002           
         H12       1.0000    0.81880   0.26950   0.78640   Biso      1.000     H          0.13886099999999998           
         H13       1.0000    0.18120   0.26950   0.71360   Biso      1.000     H          0.13886099999999998           
         H14       1.0000    0.20010   0.05180   0.42460   Biso      1.000     H          0.134627  
         H15       1.0000    0.16280   0.78420   0.75110   Biso      1.000     H          0.14408800000000002           
         H16       1.0000    0.83720   0.78420   0.74890   Biso      1.000     H          0.14408800000000002           
         H17       1.0000    0.71610   0.66250   0.69290   Biso      1.000     H          0.129197  
         H18       1.0000    0.79990   0.05180   0.07540   Biso      1.000     H          0.134626  
         H19       1.0000    0.69550   0.61850   0.21560   Biso      1.000     H          0.141351  
         H20       1.0000    0.28390   0.66250   0.80710   Biso      1.000     H          0.129197  
         H21       1.0000    0.67950   0.14730   0.08560   Biso      1.000     H          0.136244  
         H22       1.0000    0.30450   0.61850   0.28440   Biso      1.000     H          0.141351  
         H23       1.0000    0.32050   0.14730   0.41440   Biso      1.000     H          0.136245  
         H24       1.0000    0.18120   0.73050   0.21360   Biso      1.000     H          0.13886099999999998           
         O1        1.0000    0.07064   0.09160   0.12462   Biso      1.000     O          -0.643523           
         O2        1.0000    0.42418   0.56860   0.43392   Biso      1.000     O          -0.733865           
         O3        1.0000    0.40761   0.41400   0.55876   Biso      1.000     O          -0.659906           
         O4        1.0000    0.42104   0.32850   0.45394   Biso      1.000     O          -0.6957800000000001           
         O5        1.0000    0.08231   0.82060   0.51974   Biso      1.000     O          -0.709735           
         O6        1.0000    0.10109   0.93390   0.35161   Biso      1.000     O          -0.712997           
         O7        1.0000    0.39592   0.68690   0.51591   Biso      1.000     O          -0.657983           
         O8        1.0000    0.11692   0.18320   0.58770   Biso      1.000     O          -0.6550239999999999           
         O9        1.0000    0.39592   0.31310   0.01591   Biso      1.000     O          -0.657983           
         O10       1.0000    0.08231   0.17940   0.01974   Biso      1.000     O          -0.709735           
         O11       1.0000    0.42104   0.67150   0.95394   Biso      1.000     O          -0.6957810000000001           
         O12       1.0000    0.07064   0.90840   0.62462   Biso      1.000     O          -0.643523           
         O13       1.0000    0.10109   0.06610   0.85161   Biso      1.000     O          -0.712997           
         O14       1.0000    0.40481   0.41700   0.16402   Biso      1.000     O          -0.678994           
         O15       1.0000    0.40761   0.58600   0.05876   Biso      1.000     O          -0.659906           
         O16       1.0000    0.40391   0.46300   0.28163   Biso      1.000     O          -0.703769           
         O17       1.0000    0.07810   0.09040   0.72526   Biso      1.000     O          -0.652465           
         O18       1.0000    0.08026   0.94730   0.99489   Biso      1.000     O          -0.743526           
         O19       1.0000    0.42418   0.43140   0.93392   Biso      1.000     O          -0.733865           
         O20       1.0000    0.89891   0.93390   0.14839   Biso      1.000     O          -0.712997           
         O21       1.0000    0.40481   0.58300   0.66402   Biso      1.000     O          -0.678994           
         O22       1.0000    0.59239   0.41400   0.94124   Biso      1.000     O          -0.659906           
         O23       1.0000    0.40391   0.53700   0.78163   Biso      1.000     O          -0.703769           
         O24       1.0000    0.89891   0.06610   0.64839   Biso      1.000     O          -0.712997           
         O25       1.0000    0.59519   0.41700   0.33598   Biso      1.000     O          -0.678994           
         O26       1.0000    0.59239   0.58600   0.44124   Biso      1.000     O          -0.659906           
         O27       1.0000    0.59609   0.46300   0.21837   Biso      1.000     O          -0.703769           
         O28       1.0000    0.92190   0.09040   0.77474   Biso      1.000     O          -0.652465           
         O29       1.0000    0.91974   0.94730   0.50511   Biso      1.000     O          -0.743526           
         O30       1.0000    0.92936   0.09160   0.37538   Biso      1.000     O          -0.643523           
         O31       1.0000    0.57582   0.43140   0.56608   Biso      1.000     O          -0.733865           
         O32       1.0000    0.57896   0.67150   0.54606   Biso      1.000     O          -0.6957810000000001           
         O33       1.0000    0.91769   0.17940   0.48026   Biso      1.000     O          -0.709735           
         O34       1.0000    0.59519   0.58300   0.83598   Biso      1.000     O          -0.678994           
         O35       1.0000    0.07810   0.90960   0.22526   Biso      1.000     O          -0.652465           
         O36       1.0000    0.08026   0.05270   0.49489   Biso      1.000     O          -0.743526           
         O37       1.0000    0.88308   0.81680   0.41230   Biso      1.000     O          -0.6550239999999999           
         O38       1.0000    0.88308   0.18320   0.91230   Biso      1.000     O          -0.6550239999999999           
         O39       1.0000    0.60408   0.68690   0.98409   Biso      1.000     O          -0.657983           
         O40       1.0000    0.91769   0.82060   0.98026   Biso      1.000     O          -0.709735           
         O41       1.0000    0.57896   0.32850   0.04606   Biso      1.000     O          -0.6957810000000001           
         O42       1.0000    0.57582   0.56860   0.06608   Biso      1.000     O          -0.733865           
         O43       1.0000    0.92936   0.90840   0.87538   Biso      1.000     O          -0.643523           
         O44       1.0000    0.91974   0.05270   0.00511   Biso      1.000     O          -0.743526           
         O45       1.0000    0.92190   0.90960   0.27474   Biso      1.000     O          -0.652465           
         O46       1.0000    0.11692   0.81680   0.08770   Biso      1.000     O          -0.6550239999999999           
         O47       1.0000    0.60408   0.31310   0.48409   Biso      1.000     O          -0.657983           
         O48       1.0000    0.59609   0.53700   0.71837   Biso      1.000     O          -0.703769           
         S1        1.0000    0.75588   0.29299   0.38966   Biso      1.000     S          0.167761  
         S2        1.0000    0.24412   0.29299   0.11034   Biso      1.000     S          0.167761  
         S3        1.0000    0.25036   0.20477   0.91038   Biso      1.000     S          0.15659700000000001           
         S4        1.0000    0.74964   0.20477   0.58962   Biso      1.000     S          0.156596  
         S5        1.0000    0.26399   0.27363   0.55926   Biso      1.000     S          0.17216099999999998           
         S6        1.0000    0.24412   0.70701   0.61034   Biso      1.000     S          0.167761  
         S7        1.0000    0.75588   0.70701   0.88966   Biso      1.000     S          0.16776   
         S8        1.0000    0.73601   0.27363   0.94074   Biso      1.000     S          0.17216099999999998           
         S9        1.0000    0.25036   0.79523   0.41038   Biso      1.000     S          0.15659700000000001           
         S10       1.0000    0.73601   0.72637   0.44074   Biso      1.000     S          0.17216099999999998           
         S11       1.0000    0.26399   0.72637   0.05926   Biso      1.000     S          0.17216099999999998           
         S12       1.0000    0.74964   0.79523   0.08962   Biso      1.000     S          0.15659700000000001           
         Tb1       1.0000    0.49766   0.56926   0.60114   Biso      1.000     Tb          2.131869  
         Tb2       1.0000    0.49766   0.43074   0.10114   Biso      1.000     Tb          2.131868  
         Tb3       1.0000    0.99897   0.91691   0.09459   Biso      1.000     Tb          2.12931   
         Tb4       1.0000    0.50234   0.56926   0.89886   Biso      1.000     Tb          2.131869  
         Tb5       1.0000    0.99897   0.08309   0.59459   Biso      1.000     Tb          2.12931   
         Tb6       1.0000    0.50234   0.43074   0.39886   Biso      1.000     Tb          2.131869  
         Tb7       1.0000    0.00103   0.08309   0.90541   Biso      1.000     Tb          2.12931   
         Tb8       1.0000    0.00103   0.91691   0.40541   Biso      1.000     Tb          2.12931 