
##########################################################################
#               Crystallographic Information Format file
#               Produced by PyCifRW module
#
#  This is a CIF file.  CIF has been adopted by the International
#  Union of Crystallography as the standard for data archiving and
#  transmission.
#
#  For information on this file format, follow the CIF links at
#  http://www.iucr.org
##########################################################################

data_image0

_cell_length_a                          17.3974
_cell_length_b                          11.6453
_cell_length_c                          18.375
_cell_angle_alpha                       90
_cell_angle_beta                        110.319
_cell_angle_gamma                       90
_symmetry_space_group_name_H-M          'P 1'
_symmetry_int_tables_number             1
loop_
  _symmetry_equiv_pos_as_xyz
         'x, y, z' 
loop_
  _atom_site_label
  _atom_site_occupancy
  _atom_site_fract_x
  _atom_site_fract_y
  _atom_site_fract_z
  _atom_site_thermal_displace_type
  _atom_site_B_iso_or_equiv
  _atom_site_type_symbol
  _atom_site_charge
         C1        1.0000    0.12990   0.36840   0.03340   Biso      1.000     C          0.6559649999999999  
         C2        1.0000    0.30900   0.19390   0.38660   Biso      1.000     C          -0.109983           
         C3        1.0000    0.37980   0.14700   0.45000   Biso      1.000     C          0.658705  
         C4        1.0000    0.21010   0.23510   0.26750   Biso      1.000     C          -0.109072           
         C5        1.0000    0.19390   0.25500   0.72340   Biso      1.000     C          -0.11093399999999999          
         C6        1.0000    0.39120   0.83670   0.50680   Biso      1.000     C          0.690445  
         C7        1.0000    0.18700   0.30720   0.31550   Biso      1.000     C          -0.15101900000000001          
         C8        1.0000    0.20190   0.66100   0.51260   Biso      1.000     C          -0.114744           
         C9        1.0000    0.11670   0.38830   0.29430   Biso      1.000     C          0.68655   
         C10       1.0000    0.62580   0.08630   0.78320   Biso      1.000     C          0.6767880000000001  
         C11       1.0000    0.37420   0.91370   0.21680   Biso      1.000     C          0.6767880000000001  
         C12       1.0000    0.32410   0.75550   0.50220   Biso      1.000     C          -0.11713399999999999          
         C13       1.0000    0.28020   0.83050   0.80860   Biso      1.000     C          -0.097411           
         C14       1.0000    0.26390   0.81370   0.25620   Biso      1.000     C          -0.11880399999999999          
         C15       1.0000    0.29800   0.84610   0.20250   Biso      1.000     C          -0.146046           
         C16       1.0000    0.17460   0.72760   0.14500   Biso      1.000     C          -0.11302000000000001          
         C17       1.0000    0.10380   0.66160   0.09210   Biso      1.000     C          0.687399  
         C18       1.0000    0.22630   0.38790   0.95740   Biso      1.000     C          -0.104948           
         C19       1.0000    0.32410   0.24450   0.00220   Biso      1.000     C          -0.11713  
         C20       1.0000    0.30900   0.80610   0.88660   Biso      1.000     C          -0.10998699999999999          
         C21       1.0000    0.37980   0.85300   0.95000   Biso      1.000     C          0.658706  
         C22       1.0000    0.21010   0.76490   0.76750   Biso      1.000     C          -0.109074           
         C23       1.0000    0.19390   0.74500   0.22340   Biso      1.000     C          -0.11093  
         C24       1.0000    0.29620   0.33260   0.95100   Biso      1.000     C          -0.113035           
         C25       1.0000    0.39120   0.16330   0.00680   Biso      1.000     C          0.690445  
         C26       1.0000    0.22630   0.61210   0.45740   Biso      1.000     C          -0.104939           
         C27       1.0000    0.17460   0.27240   0.64500   Biso      1.000     C          -0.11301099999999999          
         C28       1.0000    0.71980   0.16950   0.19140   Biso      1.000     C          -0.09741  
         C29       1.0000    0.70380   0.66740   0.04900   Biso      1.000     C          -0.11304700000000001          
         C30       1.0000    0.73610   0.18630   0.74380   Biso      1.000     C          -0.11880299999999999          
         C31       1.0000    0.70200   0.15390   0.79750   Biso      1.000     C          -0.146045           
         C32       1.0000    0.82540   0.27240   0.85500   Biso      1.000     C          -0.11302000000000001          
         C33       1.0000    0.89620   0.33840   0.90790   Biso      1.000     C          0.687399  
         C34       1.0000    0.77370   0.61210   0.04260   Biso      1.000     C          -0.104951           
         C35       1.0000    0.67590   0.75550   0.99780   Biso      1.000     C          -0.11712  
         C36       1.0000    0.69100   0.19390   0.11340   Biso      1.000     C          -0.10998  
         C37       1.0000    0.62020   0.14700   0.05000   Biso      1.000     C          0.658705  
         C38       1.0000    0.10380   0.33840   0.59210   Biso      1.000     C          0.687398  
         C39       1.0000    0.78990   0.23510   0.23250   Biso      1.000     C          -0.10906800000000001          
         C40       1.0000    0.60880   0.83670   0.99320   Biso      1.000     C          0.690444  
         C41       1.0000    0.81300   0.30720   0.18450   Biso      1.000     C          -0.15101900000000001          
         C42       1.0000    0.79810   0.66100   0.98740   Biso      1.000     C          -0.114731           
         C43       1.0000    0.88330   0.38830   0.20570   Biso      1.000     C          0.6865600000000001  
         C44       1.0000    0.12990   0.63160   0.53340   Biso      1.000     C          0.655957  
         C45       1.0000    0.37420   0.08630   0.71680   Biso      1.000     C          0.6767890000000001  
         C46       1.0000    0.28020   0.16950   0.30860   Biso      1.000     C          -0.09740900000000001          
         C47       1.0000    0.29620   0.66740   0.45100   Biso      1.000     C          -0.11304000000000002          
         C48       1.0000    0.26390   0.18630   0.75620   Biso      1.000     C          -0.118805           
         C49       1.0000    0.29800   0.15390   0.70250   Biso      1.000     C          -0.14605  
         C50       1.0000    0.80610   0.25500   0.77660   Biso      1.000     C          -0.110927           
         C51       1.0000    0.18700   0.69280   0.81550   Biso      1.000     C          -0.151009           
         C52       1.0000    0.87010   0.63160   0.96660   Biso      1.000     C          0.6559649999999999  
         C53       1.0000    0.70380   0.33260   0.54900   Biso      1.000     C          -0.113048           
         C54       1.0000    0.62580   0.91370   0.28320   Biso      1.000     C          0.6767890000000001  
         C55       1.0000    0.87010   0.36840   0.46660   Biso      1.000     C          0.655964  
         C56       1.0000    0.69100   0.80610   0.61340   Biso      1.000     C          -0.109989           
         C57       1.0000    0.78990   0.76490   0.73250   Biso      1.000     C          -0.109077           
         C58       1.0000    0.67590   0.24450   0.49780   Biso      1.000     C          -0.117125           
         C59       1.0000    0.77370   0.38790   0.54260   Biso      1.000     C          -0.104952           
         C60       1.0000    0.80610   0.74500   0.27660   Biso      1.000     C          -0.11093199999999999          
         C61       1.0000    0.60880   0.16330   0.49320   Biso      1.000     C          0.690445  
         C62       1.0000    0.73610   0.81370   0.24380   Biso      1.000     C          -0.118806           
         C63       1.0000    0.81300   0.69280   0.68450   Biso      1.000     C          -0.15100999999999998          
         C64       1.0000    0.79810   0.33900   0.48740   Biso      1.000     C          -0.114728           
         C65       1.0000    0.88330   0.61170   0.70570   Biso      1.000     C          0.686543  
         C66       1.0000    0.20190   0.33900   0.01260   Biso      1.000     C          -0.11473199999999999          
         C67       1.0000    0.89620   0.66160   0.40790   Biso      1.000     C          0.687408  
         C68       1.0000    0.82540   0.72760   0.35500   Biso      1.000     C          -0.11302100000000001          
         C69       1.0000    0.71980   0.83050   0.69140   Biso      1.000     C          -0.09741  
         C70       1.0000    0.11670   0.61170   0.79430   Biso      1.000     C          0.686543  
         C71       1.0000    0.70200   0.84610   0.29750   Biso      1.000     C          -0.146047           
         C72       1.0000    0.62020   0.85300   0.55000   Biso      1.000     C          0.658706  
         Gd1       1.0000    0.00123   0.41644   0.40574   Biso      1.000     Gd          2.101521  
         Gd2       1.0000    0.49747   0.06877   0.60053   Biso      1.000     Gd          2.100708  
         Gd3       1.0000    0.99877   0.58356   0.59425   Biso      1.000     Gd          2.101496  
         Gd4       1.0000    0.50253   0.06877   0.89947   Biso      1.000     Gd          2.100709  
         Gd5       1.0000    0.00123   0.58356   0.90575   Biso      1.000     Gd          2.101495  
         Gd6       1.0000    0.49747   0.93123   0.10053   Biso      1.000     Gd          2.100708  
         Gd7       1.0000    0.50253   0.93123   0.39947   Biso      1.000     Gd          2.100707  
         Gd8       1.0000    0.99877   0.41644   0.09425   Biso      1.000     Gd          2.101495  
         H1        1.0000    0.30410   0.11600   0.28540   Biso      1.000     H          0.141007  
         H2        1.0000    0.16370   0.28540   0.75180   Biso      1.000     H          0.143299  
         H3        1.0000    0.69590   0.11600   0.21460   Biso      1.000     H          0.141007  
         H4        1.0000    0.18270   0.23000   0.21430   Biso      1.000     H          0.13902799999999998           
         H5        1.0000    0.67940   0.64560   0.08460   Biso      1.000     H          0.135249  
         H6        1.0000    0.71530   0.16530   0.69180   Biso      1.000     H          0.13029100000000002           
         H7        1.0000    0.79970   0.54980   0.07270   Biso      1.000     H          0.134706  
         H8        1.0000    0.81730   0.23000   0.28570   Biso      1.000     H          0.13902799999999998           
         H9        1.0000    0.83630   0.28540   0.74820   Biso      1.000     H          0.1433    
         H10       1.0000    0.83630   0.71460   0.24820   Biso      1.000     H          0.143297  
         H11       1.0000    0.28470   0.16530   0.80820   Biso      1.000     H          0.13028800000000001           
         H12       1.0000    0.32060   0.64560   0.41540   Biso      1.000     H          0.135247  
         H13       1.0000    0.79970   0.45020   0.57270   Biso      1.000     H          0.134707  
         H14       1.0000    0.81730   0.77000   0.78570   Biso      1.000     H          0.139027  
         H15       1.0000    0.20030   0.54980   0.42730   Biso      1.000     H          0.134706  
         H16       1.0000    0.67940   0.35440   0.58460   Biso      1.000     H          0.135248  
         H17       1.0000    0.69590   0.88400   0.71460   Biso      1.000     H          0.141005  
         H18       1.0000    0.30410   0.88400   0.78540   Biso      1.000     H          0.141006  
         H19       1.0000    0.71530   0.83470   0.19180   Biso      1.000     H          0.13028900000000002           
         H20       1.0000    0.18270   0.77000   0.71430   Biso      1.000     H          0.13902899999999999           
         H21       1.0000    0.20030   0.45020   0.92730   Biso      1.000     H          0.134708  
         H22       1.0000    0.32060   0.35440   0.91540   Biso      1.000     H          0.135249  
         H23       1.0000    0.28470   0.83470   0.30820   Biso      1.000     H          0.13029000000000002           
         H24       1.0000    0.16370   0.71460   0.25180   Biso      1.000     H          0.143298  
         O1        1.0000    0.42243   0.17440   0.95522   Biso      1.000     O          -0.6845359999999999           
         O2        1.0000    0.91653   0.31990   0.97910   Biso      1.000     O          -0.694689           
         O3        1.0000    0.60550   0.18820   0.98312   Biso      1.000     O          -0.650261           
         O4        1.0000    0.08048   0.44630   0.99606   Biso      1.000     O          -0.741604           
         O5        1.0000    0.40970   0.09090   0.06050   Biso      1.000     O          -0.654362           
         O6        1.0000    0.59683   0.03630   0.71825   Biso      1.000     O          -0.6923199999999999           
         O7        1.0000    0.57689   0.06750   0.06289   Biso      1.000     O          -0.73023  
         O8        1.0000    0.40422   0.91940   0.16404   Biso      1.000     O          -0.67389  
         O9        1.0000    0.91653   0.68010   0.47910   Biso      1.000     O          -0.694682           
         O10       1.0000    0.91952   0.55370   0.00394   Biso      1.000     O          -0.741607           
         O11       1.0000    0.60550   0.81180   0.48312   Biso      1.000     O          -0.650263           
         O12       1.0000    0.42311   0.93250   0.93711   Biso      1.000     O          -0.730232           
         O13       1.0000    0.40317   0.96370   0.28175   Biso      1.000     O          -0.692321           
         O14       1.0000    0.88271   0.31480   0.41234   Biso      1.000     O          -0.645986           
         O15       1.0000    0.57757   0.82560   0.04478   Biso      1.000     O          -0.6845359999999999           
         O16       1.0000    0.59578   0.91940   0.33596   Biso      1.000     O          -0.6738890000000001           
         O17       1.0000    0.11729   0.31480   0.08766   Biso      1.000     O          -0.645991           
         O18       1.0000    0.39450   0.81180   0.01688   Biso      1.000     O          -0.6502640000000001           
         O19       1.0000    0.89851   0.43470   0.14898   Biso      1.000     O          -0.705357           
         O20       1.0000    0.92125   0.40800   0.27493   Biso      1.000     O          -0.6480100000000001           
         O21       1.0000    0.92930   0.40750   0.87504   Biso      1.000     O          -0.644255           
         O22       1.0000    0.59030   0.90910   0.93950   Biso      1.000     O          -0.654361           
         O23       1.0000    0.59578   0.08060   0.83596   Biso      1.000     O          -0.673891           
         O24       1.0000    0.88271   0.68520   0.91234   Biso      1.000     O          -0.645987           
         O25       1.0000    0.89851   0.56530   0.64898   Biso      1.000     O          -0.705363           
         O26       1.0000    0.08347   0.31990   0.52090   Biso      1.000     O          -0.694706           
         O27       1.0000    0.39450   0.18820   0.51688   Biso      1.000     O          -0.6502600000000001           
         O28       1.0000    0.11729   0.68520   0.58766   Biso      1.000     O          -0.645993           
         O29       1.0000    0.40317   0.03630   0.78175   Biso      1.000     O          -0.6923229999999999           
         O30       1.0000    0.42311   0.06750   0.43711   Biso      1.000     O          -0.73023  
         O31       1.0000    0.40422   0.08060   0.66404   Biso      1.000     O          -0.673892           
         O32       1.0000    0.40970   0.90910   0.56050   Biso      1.000     O          -0.654362           
         O33       1.0000    0.08048   0.55370   0.49606   Biso      1.000     O          -0.741592           
         O34       1.0000    0.57757   0.17440   0.54478   Biso      1.000     O          -0.684538           
         O35       1.0000    0.42243   0.82560   0.45522   Biso      1.000     O          -0.684538           
         O36       1.0000    0.07070   0.59250   0.12496   Biso      1.000     O          -0.64426  
         O37       1.0000    0.91952   0.44630   0.50394   Biso      1.000     O          -0.741588           
         O38       1.0000    0.07875   0.59200   0.72507   Biso      1.000     O          -0.647975           
         O39       1.0000    0.08347   0.68010   0.02090   Biso      1.000     O          -0.694684           
         O40       1.0000    0.10149   0.56530   0.85102   Biso      1.000     O          -0.7053659999999999           
         O41       1.0000    0.92125   0.59200   0.77493   Biso      1.000     O          -0.64798  
         O42       1.0000    0.10149   0.43470   0.35102   Biso      1.000     O          -0.705384           
         O43       1.0000    0.92930   0.59250   0.37504   Biso      1.000     O          -0.644269           
         O44       1.0000    0.59683   0.96370   0.21825   Biso      1.000     O          -0.692322           
         O45       1.0000    0.57689   0.93250   0.56289   Biso      1.000     O          -0.730232           
         O46       1.0000    0.07070   0.40750   0.62496   Biso      1.000     O          -0.64426  
         O47       1.0000    0.07875   0.40800   0.22507   Biso      1.000     O          -0.647975           
         O48       1.0000    0.59030   0.09090   0.43950   Biso      1.000     O          -0.654363           
         S1        1.0000    0.75579   0.20604   0.88899   Biso      1.000     S          0.168953  
         S2        1.0000    0.75579   0.79396   0.38899   Biso      1.000     S          0.168962  
         S3        1.0000    0.74986   0.70412   0.58934   Biso      1.000     S          0.159127  
         S4        1.0000    0.73507   0.22755   0.44019   Biso      1.000     S          0.16189800000000001           
         S5        1.0000    0.25014   0.70412   0.91066   Biso      1.000     S          0.159121  
         S6        1.0000    0.26493   0.22755   0.05981   Biso      1.000     S          0.161904  
         S7        1.0000    0.26493   0.77245   0.55981   Biso      1.000     S          0.161909  
         S8        1.0000    0.25014   0.29588   0.41066   Biso      1.000     S          0.159135  
         S9        1.0000    0.24421   0.20604   0.61101   Biso      1.000     S          0.168952  
         S10       1.0000    0.73507   0.77245   0.94019   Biso      1.000     S          0.161908  
         S11       1.0000    0.24421   0.79396   0.11101   Biso      1.000     S          0.168959  
         S12       1.0000    0.74986   0.29588   0.08934   Biso      1.000     S          0.159129 