
##########################################################################
#               Crystallographic Information Format file
#               Produced by PyCifRW module
#
#  This is a CIF file.  CIF has been adopted by the International
#  Union of Crystallography as the standard for data archiving and
#  transmission.
#
#  For information on this file format, follow the CIF links at
#  http://www.iucr.org
##########################################################################

data_image0

_cell_length_a                          8.8216
_cell_length_b                          8.8216
_cell_length_c                          10.0755
_cell_angle_alpha                       102.67
_cell_angle_beta                        102.67
_cell_angle_gamma                       119.932
_symmetry_space_group_name_H-M          'P 1'
_symmetry_int_tables_number             1
loop_
  _symmetry_equiv_pos_as_xyz
         'x, y, z' 
loop_
  _atom_site_label
  _atom_site_occupancy
  _atom_site_fract_x
  _atom_site_fract_y
  _atom_site_fract_z
  _atom_site_thermal_displace_type
  _atom_site_B_iso_or_equiv
  _atom_site_type_symbol
  _atom_site_charge
         C1        1.0000    0.43720   0.74840   0.18960   Biso      1.000     C          0.564167  
         C2        1.0000    0.75240   0.44120   0.18960   Biso      1.000     C          0.5607489999999999  
         C3        1.0000    0.56860   0.32820   0.20620   Biso      1.000     C          0.155284  
         C4        1.0000    0.63760   0.87800   0.20620   Biso      1.000     C          0.152723  
         C5        1.0000    0.62800   0.88760   0.70620   Biso      1.000     C          0.152723  
         C6        1.0000    0.49840   0.68720   0.68960   Biso      1.000     C          0.564167  
         C7        1.0000    0.07820   0.81860   0.70620   Biso      1.000     C          0.155282  
         C8        1.0000    0.19120   0.00240   0.68960   Biso      1.000     C          0.5607479999999999  
         Cd1       1.0000    0.47211   0.97211   0.94422   Biso      1.000     Cd          0.828723  
         Cd2       1.0000    0.24081   0.24081   0.48162   Biso      1.000     Cd          0.983914  
         Cd3       1.0000    0.72211   0.72211   0.44422   Biso      1.000     Cd          0.8287200000000001  
         Cd4       1.0000    0.99081   0.49081   0.98162   Biso      1.000     Cd          0.9839129999999999  
         N1        1.0000    0.93550   0.02490   0.28260   Biso      1.000     N          -0.070046           
         N2        1.0000    0.43100   0.14640   0.12160   Biso      1.000     N          -0.20418  
         N3        1.0000    0.29310   0.10570   0.17280   Biso      1.000     N          -0.066609           
         N4        1.0000    0.34710   0.25770   0.28260   Biso      1.000     N          -0.072777           
         N5        1.0000    0.52160   0.40080   0.30500   Biso      1.000     N          -0.199713           
         N6        1.0000    0.69060   0.97520   0.12160   Biso      1.000     N          -0.200427           
         N7        1.0000    0.87970   0.06710   0.17280   Biso      1.000     N          -0.069301           
         N8        1.0000    0.78340   0.90420   0.30500   Biso      1.000     N          -0.201944           
         N9        1.0000    0.00770   0.59710   0.78260   Biso      1.000     N          -0.072812           
         N10       1.0000    0.85570   0.54310   0.67280   Biso      1.000     N          -0.066596           
         N11       1.0000    0.15080   0.77160   0.80500   Biso      1.000     N          -0.199708           
         N12       1.0000    0.72520   0.94060   0.62160   Biso      1.000     N          -0.200423           
         N13       1.0000    0.81710   0.12970   0.67280   Biso      1.000     N          -0.069334           
         N14       1.0000    0.77490   0.18550   0.78260   Biso      1.000     N          -0.070009           
         N15       1.0000    0.65420   0.03340   0.80500   Biso      1.000     N          -0.20195  
         N16       1.0000    0.89640   0.68100   0.62160   Biso      1.000     N          -0.20416099999999998          
         O1        1.0000    0.86750   0.60630   0.28060   Biso      1.000     O          -0.529508           
         O2        1.0000    0.42430   0.66310   0.78060   Biso      1.000     O          -0.5322020000000001           
         O3        1.0000    0.47840   0.56260   0.58280   Biso      1.000     O          -0.5490470000000001           
         O4        1.0000    0.35630   0.11750   0.78060   Biso      1.000     O          -0.529509           
         O5        1.0000    0.10440   0.02020   0.58280   Biso      1.000     O          -0.549804           
         O6        1.0000    0.41310   0.67430   0.28060   Biso      1.000     O          -0.5322020000000001           
         O7        1.0000    0.31260   0.72840   0.08280   Biso      1.000     O          -0.549046           
         O8        1.0000    0.77020   0.35440   0.08280   Biso      1.000     O          -0.549805 