
##########################################################################
#               Crystallographic Information Format file
#               Produced by PyCifRW module
#
#  This is a CIF file.  CIF has been adopted by the International
#  Union of Crystallography as the standard for data archiving and
#  transmission.
#
#  For information on this file format, follow the CIF links at
#  http://www.iucr.org
##########################################################################

data_image0

_cell_length_a                          9.3669
_cell_length_b                          14.1543
_cell_length_c                          21.7897
_cell_angle_alpha                       95.075
_cell_angle_beta                        94.315
_cell_angle_gamma                       104.723
_symmetry_space_group_name_H-M          'P 1'
_symmetry_int_tables_number             1
loop_
  _symmetry_equiv_pos_as_xyz
         'x, y, z' 
loop_
  _atom_site_label
  _atom_site_occupancy
  _atom_site_fract_x
  _atom_site_fract_y
  _atom_site_fract_z
  _atom_site_thermal_displace_type
  _atom_site_B_iso_or_equiv
  _atom_site_type_symbol
  _atom_site_charge
         C1        1.0000    0.62810   0.87510   0.24450   Biso      1.000     C          -0.134459           
         C2        1.0000    0.75150   0.72970   0.51450   Biso      1.000     C          -0.131698           
         C3        1.0000    0.67040   0.77960   0.54970   Biso      1.000     C          0.028307  
         C4        1.0000    0.74060   0.84640   0.60010   Biso      1.000     C          -0.144081           
         C5        1.0000    0.89160   0.86100   0.61280   Biso      1.000     C          0.130923  
         C6        1.0000    0.51740   0.01370   0.70450   Biso      1.000     C          0.586187  
         C7        1.0000    0.22200   0.21990   0.81300   Biso      1.000     C          0.604194  
         C8        1.0000    0.77520   0.25210   0.86910   Biso      1.000     C          0.541484  
         C9        1.0000    0.90190   0.74900   0.53120   Biso      1.000     C          0.143688  
         C10       1.0000    0.50450   0.09920   0.74910   Biso      1.000     C          0.131705  
         C11       1.0000    0.36920   0.20060   0.80100   Biso      1.000     C          0.014703  
         C12       1.0000    0.50140   0.24780   0.83740   Biso      1.000     C          -0.145398           
         C13       1.0000    0.62900   0.21570   0.82820   Biso      1.000     C          0.12747   
         C14       1.0000    0.65790   0.57250   0.86320   Biso      1.000     C          0.526752  
         C15       1.0000    0.58310   0.51730   0.62710   Biso      1.000     C          0.5606    
         C16       1.0000    0.37610   0.75720   0.75670   Biso      1.000     C          0.56781   
         C17       1.0000    0.60000   0.59250   0.79960   Biso      1.000     C          0.125723  
         C18       1.0000    0.37190   0.12490   0.75550   Biso      1.000     C          -0.134457           
         C19       1.0000    0.62360   0.54560   0.74460   Biso      1.000     C          -0.153577           
         C20       1.0000    0.98220   0.92920   0.66700   Biso      1.000     C          0.5588770000000001  
         C21       1.0000    0.00400   0.70130   0.49820   Biso      1.000     C          0.550125  
         C22       1.0000    0.83470   0.20720   0.03320   Biso      1.000     C          0.565062  
         C23       1.0000    0.68820   0.83700   0.02800   Biso      1.000     C          0.6049220000000001  
         C24       1.0000    0.38720   0.05740   0.11770   Biso      1.000     C          0.562705  
         C25       1.0000    0.73420   0.11110   0.04610   Biso      1.000     C          0.13133499999999998           
         C26       1.0000    0.76550   0.02210   0.03250   Biso      1.000     C          -0.152051           
         C27       1.0000    0.66500   0.93760   0.04490   Biso      1.000     C          0.035920999999999995          
         C28       1.0000    0.53860   0.94590   0.07050   Biso      1.000     C          -0.164883           
         C29       1.0000    0.50390   0.75730   0.53480   Biso      1.000     C          0.605594  
         C30       1.0000    0.51840   0.03930   0.08520   Biso      1.000     C          0.121367  
         C31       1.0000    0.14600   0.49900   0.84770   Biso      1.000     C          0.631243  
         C32       1.0000    0.84270   0.25490   0.67300   Biso      1.000     C          0.563372  
         C33       1.0000    0.01550   0.51730   0.68190   Biso      1.000     C          0.12147999999999999           
         C34       1.0000    0.08580   0.54570   0.74150   Biso      1.000     C          -0.154944           
         C35       1.0000    0.07450   0.47430   0.78150   Biso      1.000     C          0.040494  
         C36       1.0000    0.99760   0.37730   0.76060   Biso      1.000     C          -0.148622           
         C37       1.0000    0.93070   0.35650   0.70070   Biso      1.000     C          0.122322  
         C38       1.0000    0.02060   0.58810   0.63250   Biso      1.000     C          0.5685399999999999  
         C39       1.0000    0.56480   0.56800   0.68910   Biso      1.000     C          0.032529  
         C40       1.0000    0.48760   0.64070   0.69100   Biso      1.000     C          -0.15441  
         C41       1.0000    0.46760   0.68270   0.74880   Biso      1.000     C          0.124396  
         C42       1.0000    0.10840   0.13900   0.38720   Biso      1.000     C          0.130926  
         C43       1.0000    0.25940   0.15360   0.39990   Biso      1.000     C          -0.144081           
         C44       1.0000    0.32960   0.22040   0.45030   Biso      1.000     C          0.028306  
         C45       1.0000    0.24850   0.27030   0.48550   Biso      1.000     C          -0.131695           
         C46       1.0000    0.09810   0.25100   0.46880   Biso      1.000     C          0.14368399999999998           
         C47       1.0000    0.01780   0.07080   0.33300   Biso      1.000     C          0.558897  
         C48       1.0000    0.49610   0.24270   0.46520   Biso      1.000     C          0.605596  
         C49       1.0000    0.48260   0.98630   0.29550   Biso      1.000     C          0.586182  
         C50       1.0000    0.99600   0.29870   0.50180   Biso      1.000     C          0.550125  
         C51       1.0000    0.00240   0.62270   0.23940   Biso      1.000     C          -0.148622           
         C52       1.0000    0.92550   0.52570   0.21850   Biso      1.000     C          0.040491  
         C53       1.0000    0.91420   0.45430   0.25850   Biso      1.000     C          -0.154944           
         C54       1.0000    0.98450   0.48270   0.31810   Biso      1.000     C          0.12148099999999999           
         C55       1.0000    0.15730   0.74510   0.32700   Biso      1.000     C          0.563369  
         C56       1.0000    0.85400   0.50100   0.15230   Biso      1.000     C          0.631245  
         C57       1.0000    0.97940   0.41190   0.36750   Biso      1.000     C          0.568535  
         C58       1.0000    0.06930   0.64350   0.29930   Biso      1.000     C          0.122321  
         C59       1.0000    0.77800   0.78010   0.18700   Biso      1.000     C          0.604191  
         C60       1.0000    0.22480   0.74790   0.13090   Biso      1.000     C          0.541485  
         C61       1.0000    0.49550   0.90080   0.25090   Biso      1.000     C          0.131709  
         C62       1.0000    0.16530   0.79280   0.96680   Biso      1.000     C          0.5650689999999999  
         C63       1.0000    0.31180   0.16300   0.97200   Biso      1.000     C          0.604921  
         C64       1.0000    0.61280   0.94260   0.88230   Biso      1.000     C          0.5627    
         C65       1.0000    0.26580   0.88890   0.95390   Biso      1.000     C          0.13133399999999998           
         C66       1.0000    0.23450   0.97790   0.96750   Biso      1.000     C          -0.152052           
         C67       1.0000    0.33500   0.06240   0.95510   Biso      1.000     C          0.035922  
         C68       1.0000    0.46140   0.05410   0.92950   Biso      1.000     C          -0.164885           
         C69       1.0000    0.48160   0.96070   0.91480   Biso      1.000     C          0.121368  
         C70       1.0000    0.43520   0.43200   0.31090   Biso      1.000     C          0.03253   
         C71       1.0000    0.37640   0.45440   0.25540   Biso      1.000     C          -0.15358  
         C72       1.0000    0.40000   0.40750   0.20040   Biso      1.000     C          0.125727  
         C73       1.0000    0.62390   0.24280   0.24330   Biso      1.000     C          0.567808  
         C74       1.0000    0.41690   0.48270   0.37290   Biso      1.000     C          0.560595  
         C75       1.0000    0.34210   0.42750   0.13680   Biso      1.000     C          0.5267569999999999  
         C76       1.0000    0.37100   0.78430   0.17180   Biso      1.000     C          0.127471  
         C77       1.0000    0.49860   0.75220   0.16260   Biso      1.000     C          -0.145397           
         C78       1.0000    0.63080   0.79940   0.19900   Biso      1.000     C          0.014704  
         C79       1.0000    0.53240   0.31730   0.25120   Biso      1.000     C          0.12439800000000001           
         C80       1.0000    0.51240   0.35930   0.30900   Biso      1.000     C          -0.154412           
         Eu1       1.0000    0.43186   0.71214   0.90318   Biso      1.000     Eu          1.242905  
         Eu2       1.0000    0.84927   0.06885   0.77928   Biso      1.000     Eu          1.346007  
         Eu3       1.0000    0.23857   0.82914   0.61812   Biso      1.000     Eu          1.3307930000000001  
         Eu4       1.0000    0.78852   0.38725   0.56013   Biso      1.000     Eu          1.3171680000000001  
         Eu5       1.0000    0.07689   0.30851   0.93708   Biso      1.000     Eu          1.419582  
         Eu6       1.0000    0.56814   0.28786   0.09682   Biso      1.000     Eu          1.242905  
         Eu7       1.0000    0.15073   0.93115   0.22072   Biso      1.000     Eu          1.346019  
         Eu8       1.0000    0.76143   0.17086   0.38188   Biso      1.000     Eu          1.330789  
         Eu9       1.0000    0.21148   0.61275   0.43987   Biso      1.000     Eu          1.3171709999999999  
         Eu10      1.0000    0.92311   0.69149   0.06292   Biso      1.000     Eu          1.419581  
         H1        1.0000    0.00840   0.67210   0.21350   Biso      1.000     H          0.133422  
         H2        1.0000    0.53240   0.10990   0.92210   Biso      1.000     H          0.13161   
         H3        1.0000    0.14760   0.98110   0.98470   Biso      1.000     H          0.149626  
         H4        1.0000    0.45090   0.66030   0.65480   Biso      1.000     H          0.138104  
         H5        1.0000    0.50490   0.29970   0.86730   Biso      1.000     H          0.148084  
         H6        1.0000    0.67850   0.49930   0.74480   Biso      1.000     H          0.140682  
         H7        1.0000    0.68780   0.88010   0.62430   Biso      1.000     H          0.148931  
         H8        1.0000    0.29430   0.31530   0.51940   Biso      1.000     H          0.151332  
         H9        1.0000    0.31220   0.11990   0.37570   Biso      1.000     H          0.14893   
         H10       1.0000    0.71350   0.90780   0.27010   Biso      1.000     H          0.146738  
         H11       1.0000    0.49510   0.70030   0.13270   Biso      1.000     H          0.148084  
         H12       1.0000    0.28650   0.09220   0.72990   Biso      1.000     H          0.14673599999999998           
         H13       1.0000    0.54910   0.33970   0.34520   Biso      1.000     H          0.138103  
         H14       1.0000    0.32150   0.50070   0.25520   Biso      1.000     H          0.140682  
         H15       1.0000    0.86130   0.38950   0.24600   Biso      1.000     H          0.142286  
         H16       1.0000    0.46760   0.89010   0.07790   Biso      1.000     H          0.13161099999999998           
         H17       1.0000    0.13870   0.61050   0.75400   Biso      1.000     H          0.142286  
         H18       1.0000    0.99160   0.32790   0.78650   Biso      1.000     H          0.133421  
         H19       1.0000    0.70570   0.68470   0.48060   Biso      1.000     H          0.151333  
         H20       1.0000    0.85240   0.01890   0.01530   Biso      1.000     H          0.149626  
         N1        1.0000    0.48040   0.34120   0.19800   Biso      1.000     N          -0.27094  
         N2        1.0000    0.06120   0.57450   0.33810   Biso      1.000     N          -0.284935           
         N3        1.0000    0.02900   0.18680   0.41970   Biso      1.000     N          -0.319188           
         N4        1.0000    0.37180   0.85780   0.21430   Biso      1.000     N          -0.277589           
         N5        1.0000    0.61420   0.12020   0.07220   Biso      1.000     N          -0.285827           
         N6        1.0000    0.93880   0.42550   0.66190   Biso      1.000     N          -0.284934           
         N7        1.0000    0.97100   0.81320   0.58030   Biso      1.000     N          -0.319185           
         N8        1.0000    0.62820   0.14220   0.78570   Biso      1.000     N          -0.277588           
         N9        1.0000    0.51960   0.65880   0.80200   Biso      1.000     N          -0.270935           
         N10       1.0000    0.38580   0.87980   0.92780   Biso      1.000     N          -0.285831           
         O1        1.0000    0.39240   0.38610   0.09180   Biso      1.000     O          -0.49273999999999996          
         O2        1.0000    0.25240   0.47650   0.13230   Biso      1.000     O          -0.346025           
         O3        1.0000    0.34990   0.55020   0.37020   Biso      1.000     O          -0.523764           
         O4        1.0000    0.46820   0.45810   0.42030   Biso      1.000     O          -0.400169           
         O5        1.0000    0.65360   0.20200   0.28800   Biso      1.000     O          -0.499612           
         O6        1.0000    0.80500   0.28380   0.05690   Biso      1.000     O          -0.46608999999999995          
         O7        1.0000    0.12060   0.78640   0.14470   Biso      1.000     O          -0.628143           
         O8        1.0000    0.93570   0.20400   0.00010   Biso      1.000     O          -0.553238           
         O9        1.0000    0.81280   0.82510   0.04350   Biso      1.000     O          -0.546242           
         O10       1.0000    0.58080   0.77380   0.99930   Biso      1.000     O          -0.504685           
         O11       1.0000    0.30590   0.98580   0.13810   Biso      1.000     O          -0.541824           
         O12       1.0000    0.66490   0.23030   0.19000   Biso      1.000     O          -0.475612           
         O13       1.0000    0.20900   0.68530   0.08470   Biso      1.000     O          -0.450858           
         O14       1.0000    0.89030   0.83100   0.21980   Biso      1.000     O          -0.501287           
         O15       1.0000    0.37480   0.14410   0.12140   Biso      1.000     O          -0.49517  
         O16       1.0000    0.58700   0.02050   0.33770   Biso      1.000     O          -0.476513           
         O17       1.0000    0.74220   0.42960   0.14320   Biso      1.000     O          -0.505883           
         O18       1.0000    0.36940   0.01560   0.28640   Biso      1.000     O          -0.537856           
         O19       1.0000    0.89210   0.08280   0.31760   Biso      1.000     O          -0.517357           
         O20       1.0000    0.06910   0.00570   0.30720   Biso      1.000     O          -0.46917299999999995          
         O21       1.0000    0.56540   0.21300   0.42380   Biso      1.000     O          -0.524399           
         O22       1.0000    0.55200   0.28880   0.51670   Biso      1.000     O          -0.504045           
         O23       1.0000    0.04400   0.36520   0.54570   Biso      1.000     O          -0.47881599999999996          
         O24       1.0000    0.85740   0.26880   0.48300   Biso      1.000     O          -0.6203029999999999           
         O25       1.0000    0.22720   0.75000   0.37970   Biso      1.000     O          -0.501316           
         O26       1.0000    0.15480   0.81590   0.29760   Biso      1.000     O          -0.462658           
         O27       1.0000    0.91030   0.55450   0.11300   Biso      1.000     O          -0.5804229999999999           
         O28       1.0000    0.77730   0.71490   0.14470   Biso      1.000     O          -0.555358           
         O29       1.0000    0.94320   0.55280   0.58180   Biso      1.000     O          -0.53054  
         O30       1.0000    0.74760   0.52350   0.86770   Biso      1.000     O          -0.346014           
         O31       1.0000    0.25780   0.57040   0.85680   Biso      1.000     O          -0.5058779999999999           
         O32       1.0000    0.90010   0.32660   0.35460   Biso      1.000     O          -0.5044310000000001           
         O33       1.0000    0.62520   0.85590   0.87860   Biso      1.000     O          -0.495159           
         O34       1.0000    0.69410   0.01420   0.86190   Biso      1.000     O          -0.5418229999999999           
         O35       1.0000    0.41920   0.22620   0.00070   Biso      1.000     O          -0.504675           
         O36       1.0000    0.18720   0.17490   0.95650   Biso      1.000     O          -0.546243           
         O37       1.0000    0.06430   0.79600   0.99990   Biso      1.000     O          -0.553242           
         O38       1.0000    0.19500   0.71620   0.94310   Biso      1.000     O          -0.46609300000000004          
         O39       1.0000    0.33510   0.76970   0.81000   Biso      1.000     O          -0.47562  
         O40       1.0000    0.34640   0.79800   0.71200   Biso      1.000     O          -0.49961099999999997          
         O41       1.0000    0.53180   0.54190   0.57970   Biso      1.000     O          -0.40018400000000004          
         O42       1.0000    0.65010   0.44980   0.62980   Biso      1.000     O          -0.523759           
         O43       1.0000    0.60760   0.61390   0.90820   Biso      1.000     O          -0.492742           
         O44       1.0000    0.87940   0.21360   0.85530   Biso      1.000     O          -0.628146           
         O45       1.0000    0.79100   0.31470   0.91530   Biso      1.000     O          -0.450859           
         O46       1.0000    0.22270   0.28510   0.85530   Biso      1.000     O          -0.555358           
         O47       1.0000    0.10970   0.16900   0.78020   Biso      1.000     O          -0.5012979999999999           
         O48       1.0000    0.41300   0.97950   0.66230   Biso      1.000     O          -0.47653599999999996          
         O49       1.0000    0.63060   0.98440   0.71360   Biso      1.000     O          -0.537856           
         O50       1.0000    0.10790   0.91720   0.68240   Biso      1.000     O          -0.517328           
         O51       1.0000    0.93090   0.99430   0.69280   Biso      1.000     O          -0.469134           
         O52       1.0000    0.43460   0.78700   0.57620   Biso      1.000     O          -0.524405           
         O53       1.0000    0.44800   0.71120   0.48330   Biso      1.000     O          -0.504047           
         O54       1.0000    0.95600   0.63480   0.45430   Biso      1.000     O          -0.478811           
         O55       1.0000    0.14260   0.73120   0.51700   Biso      1.000     O          -0.6203069999999999           
         O56       1.0000    0.77280   0.25000   0.62030   Biso      1.000     O          -0.501308           
         O57       1.0000    0.84520   0.18410   0.70240   Biso      1.000     O          -0.46266199999999996          
         O58       1.0000    0.08970   0.44550   0.88700   Biso      1.000     O          -0.580426           
         O59       1.0000    0.09990   0.67340   0.64540   Biso      1.000     O          -0.5044390000000001           
         O60       1.0000    0.05680   0.44720   0.41820   Biso      1.000     O          -0.530532 