
##########################################################################
#               Crystallographic Information Format file
#               Produced by PyCifRW module
#
#  This is a CIF file.  CIF has been adopted by the International
#  Union of Crystallography as the standard for data archiving and
#  transmission.
#
#  For information on this file format, follow the CIF links at
#  http://www.iucr.org
##########################################################################

data_image0

_cell_length_a                          8.4015
_cell_length_b                          9.4904
_cell_length_c                          28.28
_cell_angle_alpha                       90
_cell_angle_beta                        97.514
_cell_angle_gamma                       90
_symmetry_space_group_name_H-M          'P 1'
_symmetry_int_tables_number             1
loop_
  _symmetry_equiv_pos_as_xyz
         'x, y, z' 
loop_
  _atom_site_label
  _atom_site_occupancy
  _atom_site_fract_x
  _atom_site_fract_y
  _atom_site_fract_z
  _atom_site_thermal_displace_type
  _atom_site_B_iso_or_equiv
  _atom_site_type_symbol
  _atom_site_charge
         C1        1.0000    0.75100   0.01450   0.36070   Biso      1.000     C          0.610043  
         C2        1.0000    0.22810   0.26700   0.84440   Biso      1.000     C          0.513768  
         C3        1.0000    0.16680   0.18360   0.88610   Biso      1.000     C          0.516961  
         C4        1.0000    0.41150   0.50870   0.98930   Biso      1.000     C          0.505247  
         C5        1.0000    0.28410   0.38530   0.64140   Biso      1.000     C          0.137351  
         C6        1.0000    0.31280   0.24620   0.63020   Biso      1.000     C          -0.147378           
         C7        1.0000    0.22350   0.14070   0.64910   Biso      1.000     C          0.027698  
         C8        1.0000    0.10750   0.18100   0.67770   Biso      1.000     C          -0.137103           
         C9        1.0000    0.08660   0.32210   0.68630   Biso      1.000     C          0.130252  
         C10       1.0000    0.03990   0.87900   0.78525   Biso      1.000     C          0.596541  
         C11       1.0000    0.36540   0.51100   0.62260   Biso      1.000     C          0.556072  
         C12       1.0000    0.96010   0.37900   0.71475   Biso      1.000     C          0.596551  
         C13       1.0000    0.77190   0.76700   0.65560   Biso      1.000     C          0.51378   
         C14       1.0000    0.83320   0.68360   0.61390   Biso      1.000     C          0.516972  
         C15       1.0000    0.58850   0.00870   0.51070   Biso      1.000     C          0.505258  
         C16       1.0000    0.28410   0.11470   0.14140   Biso      1.000     C          0.137352  
         C17       1.0000    0.31280   0.25380   0.13020   Biso      1.000     C          -0.147377           
         C18       1.0000    0.22350   0.35930   0.14910   Biso      1.000     C          0.027712999999999998          
         C19       1.0000    0.10750   0.31900   0.17770   Biso      1.000     C          -0.137102           
         C20       1.0000    0.24900   0.98550   0.63930   Biso      1.000     C          0.610068  
         C21       1.0000    0.75100   0.48550   0.86070   Biso      1.000     C          0.610059  
         C22       1.0000    0.63460   0.01100   0.87740   Biso      1.000     C          0.556068  
         C23       1.0000    0.91340   0.82210   0.81370   Biso      1.000     C          0.13025899999999999           
         C24       1.0000    0.41150   0.99130   0.48930   Biso      1.000     C          0.505249  
         C25       1.0000    0.16680   0.31640   0.38610   Biso      1.000     C          0.51698   
         C26       1.0000    0.22810   0.23300   0.34440   Biso      1.000     C          0.513811  
         C27       1.0000    0.03990   0.62100   0.28525   Biso      1.000     C          0.596542  
         C28       1.0000    0.63460   0.48900   0.37740   Biso      1.000     C          0.5560649999999999  
         C29       1.0000    0.91340   0.67790   0.31370   Biso      1.000     C          0.13028499999999998           
         C30       1.0000    0.89250   0.81900   0.32230   Biso      1.000     C          -0.13710799999999998          
         C31       1.0000    0.77650   0.85930   0.35090   Biso      1.000     C          0.027682  
         C32       1.0000    0.68720   0.75380   0.36980   Biso      1.000     C          -0.147401           
         C33       1.0000    0.71590   0.61470   0.35860   Biso      1.000     C          0.13735899999999998           
         C34       1.0000    0.58850   0.49130   0.01070   Biso      1.000     C          0.50525   
         C35       1.0000    0.83320   0.81640   0.11390   Biso      1.000     C          0.517001  
         C36       1.0000    0.77190   0.73300   0.15560   Biso      1.000     C          0.513783  
         C37       1.0000    0.96010   0.12100   0.21475   Biso      1.000     C          0.596541  
         C38       1.0000    0.24900   0.51450   0.13930   Biso      1.000     C          0.610083  
         C39       1.0000    0.71590   0.88530   0.85860   Biso      1.000     C          0.137349  
         C40       1.0000    0.68720   0.74620   0.86980   Biso      1.000     C          -0.14738900000000002          
         C41       1.0000    0.77650   0.64070   0.85090   Biso      1.000     C          0.027699  
         C42       1.0000    0.89250   0.68100   0.82230   Biso      1.000     C          -0.137104           
         C43       1.0000    0.08660   0.17790   0.18630   Biso      1.000     C          0.130245  
         C44       1.0000    0.36540   0.98900   0.12260   Biso      1.000     C          0.556075  
         Eu1       1.0000    0.85489   0.17847   0.80449   Biso      1.000     Eu          1.308997  
         Eu2       1.0000    0.54372   0.26111   0.92591   Biso      1.000     Eu          1.349542  
         Eu3       1.0000    0.14511   0.67847   0.69551   Biso      1.000     Eu          1.309012  
         Eu4       1.0000    0.45628   0.76111   0.57409   Biso      1.000     Eu          1.3495540000000001  
         Eu5       1.0000    0.14511   0.82153   0.19551   Biso      1.000     Eu          1.3090469999999998  
         Eu6       1.0000    0.45628   0.73889   0.07409   Biso      1.000     Eu          1.3496110000000001  
         Eu7       1.0000    0.85489   0.32153   0.30449   Biso      1.000     Eu          1.309025  
         Eu8       1.0000    0.54372   0.23889   0.42591   Biso      1.000     Eu          1.349542  
         H1        1.0000    0.95450   0.88650   0.30930   Biso      1.000     H          0.143805  
         H2        1.0000    0.61030   0.77650   0.38940   Biso      1.000     H          0.147651  
         H3        1.0000    0.95450   0.61350   0.80930   Biso      1.000     H          0.14381   
         H4        1.0000    0.04550   0.38650   0.19070   Biso      1.000     H          0.143811  
         H5        1.0000    0.38970   0.22350   0.61060   Biso      1.000     H          0.14765799999999998           
         H6        1.0000    0.04550   0.11350   0.69070   Biso      1.000     H          0.14381   
         H7        1.0000    0.38970   0.27650   0.11060   Biso      1.000     H          0.147651  
         H8        1.0000    0.61030   0.72350   0.88940   Biso      1.000     H          0.14765999999999999           
         N1        1.0000    0.17520   0.07740   0.16953   Biso      1.000     N          -0.319442           
         N2        1.0000    0.82480   0.57740   0.33047   Biso      1.000     N          -0.31951799999999997          
         N3        1.0000    0.82480   0.92260   0.83047   Biso      1.000     N          -0.319475           
         N4        1.0000    0.17520   0.42260   0.66953   Biso      1.000     N          -0.319484           
         O1        1.0000    0.97580   0.85420   0.11917   Biso      1.000     O          -0.426674           
         O2        1.0000    0.35050   0.54320   0.11228   Biso      1.000     O          -0.530591           
         O3        1.0000    0.16440   0.59910   0.15789   Biso      1.000     O          -0.520795           
         O4        1.0000    0.87560   0.20940   0.23249   Biso      1.000     O          -0.55132  
         O5        1.0000    0.94760   0.99100   0.21721   Biso      1.000     O          -0.54791  
         O6        1.0000    0.62700   0.69770   0.14896   Biso      1.000     O          -0.44514799999999993          
         O7        1.0000    0.45360   0.00250   0.09064   Biso      1.000     O          -0.5175609999999999           
         O8        1.0000    0.87040   0.71010   0.19110   Biso      1.000     O          -0.402739           
         O9        1.0000    0.73150   0.83910   0.07812   Biso      1.000     O          -0.432042           
         O10       1.0000    0.63190   0.56250   0.04808   Biso      1.000     O          -0.45848500000000003          
         O11       1.0000    0.12960   0.21010   0.30890   Biso      1.000     O          -0.402959           
         O12       1.0000    0.66770   0.36940   0.36136   Biso      1.000     O          -0.629657           
         O13       1.0000    0.54640   0.50250   0.40936   Biso      1.000     O          -0.517432           
         O14       1.0000    0.64950   0.04320   0.38772   Biso      1.000     O          -0.530389           
         O15       1.0000    0.83560   0.09910   0.34211   Biso      1.000     O          -0.520694           
         O16       1.0000    0.12440   0.70940   0.26751   Biso      1.000     O          -0.5515479999999999           
         O17       1.0000    0.05240   0.49100   0.28279   Biso      1.000     O          -0.548021           
         O18       1.0000    0.37300   0.19770   0.35104   Biso      1.000     O          -0.445247           
         O19       1.0000    0.33230   0.86940   0.13864   Biso      1.000     O          -0.629645           
         O20       1.0000    0.26850   0.33910   0.42188   Biso      1.000     O          -0.43220299999999995          
         O21       1.0000    0.02420   0.35420   0.38083   Biso      1.000     O          -0.426701           
         O22       1.0000    0.67430   0.41200   0.99029   Biso      1.000     O          -0.477054           
         O23       1.0000    0.67430   0.08800   0.49029   Biso      1.000     O          -0.477062           
         O24       1.0000    0.35050   0.95680   0.61228   Biso      1.000     O          -0.530509           
         O25       1.0000    0.97580   0.64580   0.61917   Biso      1.000     O          -0.42665200000000003          
         O26       1.0000    0.36810   0.06250   0.45192   Biso      1.000     O          -0.45840699999999995          
         O27       1.0000    0.66770   0.13060   0.86136   Biso      1.000     O          -0.629603           
         O28       1.0000    0.54640   0.99750   0.90936   Biso      1.000     O          -0.5174890000000001           
         O29       1.0000    0.64950   0.45680   0.88772   Biso      1.000     O          -0.530483           
         O30       1.0000    0.83560   0.40090   0.84211   Biso      1.000     O          -0.52073  
         O31       1.0000    0.12440   0.79060   0.76751   Biso      1.000     O          -0.551477           
         O32       1.0000    0.05240   0.00900   0.78279   Biso      1.000     O          -0.547988           
         O33       1.0000    0.37300   0.30230   0.85104   Biso      1.000     O          -0.44518  
         O34       1.0000    0.12960   0.28990   0.80890   Biso      1.000     O          -0.402839           
         O35       1.0000    0.26850   0.16090   0.92188   Biso      1.000     O          -0.432123           
         O36       1.0000    0.02420   0.14580   0.88083   Biso      1.000     O          -0.42666099999999996          
         O37       1.0000    0.36810   0.43750   0.95192   Biso      1.000     O          -0.458466           
         O38       1.0000    0.32570   0.58800   0.00971   Biso      1.000     O          -0.47703500000000004          
         O39       1.0000    0.33230   0.63060   0.63864   Biso      1.000     O          -0.6296039999999999           
         O40       1.0000    0.45360   0.49750   0.59064   Biso      1.000     O          -0.517525           
         O41       1.0000    0.16440   0.90090   0.65789   Biso      1.000     O          -0.520752           
         O42       1.0000    0.87560   0.29060   0.73249   Biso      1.000     O          -0.551424           
         O43       1.0000    0.94760   0.50900   0.71721   Biso      1.000     O          -0.5479470000000001           
         O44       1.0000    0.62700   0.80230   0.64896   Biso      1.000     O          -0.445162           
         O45       1.0000    0.87040   0.78990   0.69110   Biso      1.000     O          -0.40279299999999996          
         O46       1.0000    0.73150   0.66090   0.57812   Biso      1.000     O          -0.432062           
         O47       1.0000    0.63190   0.93750   0.54808   Biso      1.000     O          -0.458478           
         O48       1.0000    0.32570   0.91200   0.50971   Biso      1.000     O          -0.47704799999999997 