
##########################################################################
#               Crystallographic Information Format file
#               Produced by PyCifRW module
#
#  This is a CIF file.  CIF has been adopted by the International
#  Union of Crystallography as the standard for data archiving and
#  transmission.
#
#  For information on this file format, follow the CIF links at
#  http://www.iucr.org
##########################################################################

data_image0

_cell_length_a                          15.2229
_cell_length_b                          15.2229
_cell_length_c                          6.8862
_cell_angle_alpha                       90
_cell_angle_beta                        90
_cell_angle_gamma                       120
_symmetry_space_group_name_H-M          'P 1'
_symmetry_int_tables_number             1
loop_
  _symmetry_equiv_pos_as_xyz
         'x, y, z' 
loop_
  _atom_site_label
  _atom_site_occupancy
  _atom_site_fract_x
  _atom_site_fract_y
  _atom_site_fract_z
  _atom_site_thermal_displace_type
  _atom_site_B_iso_or_equiv
  _atom_site_type_symbol
  _atom_site_charge
         C1        1.0000    0.08560   0.46060   0.96500   Biso      1.000     C          -0.069462           
         C2        1.0000    0.40800   0.42800   0.14500   Biso      1.000     C          0.018135  
         C3        1.0000    0.08560   0.62500   0.96500   Biso      1.000     C          -0.06930499999999999          
         C4        1.0000    0.02000   0.59200   0.14500   Biso      1.000     C          0.01784   
         C5        1.0000    0.10800   0.55400   0.88700   Biso      1.000     C          0.08368300000000001           
         C6        1.0000    0.99500   0.49750   0.76500   Biso      1.000     C          -0.10809400000000001          
         C7        1.0000    0.44600   0.55400   0.88700   Biso      1.000     C          0.082854  
         C8        1.0000    0.44600   0.89200   0.88700   Biso      1.000     C          0.08368300000000001           
         C9        1.0000    0.37500   0.46060   0.96500   Biso      1.000     C          -0.067754           
         C10       1.0000    0.50250   0.00500   0.76500   Biso      1.000     C          -0.108096           
         C11       1.0000    0.49750   0.99500   0.23500   Biso      1.000     C          -0.108096           
         C12       1.0000    0.55400   0.44600   0.11300   Biso      1.000     C          0.082854  
         C13       1.0000    0.49750   0.50250   0.23500   Biso      1.000     C          -0.107027           
         C14       1.0000    0.89200   0.44600   0.11300   Biso      1.000     C          0.083682  
         C15       1.0000    0.00500   0.50250   0.23500   Biso      1.000     C          -0.10809500000000001          
         C16       1.0000    0.33333   0.66667   0.86000   Biso      1.000     C          0.079979  
         C17       1.0000    0.66667   0.33333   0.14000   Biso      1.000     C          0.079979  
         C18       1.0000    0.55400   0.10800   0.11300   Biso      1.000     C          0.08368300000000001           
         C19       1.0000    0.57200   0.98000   0.14500   Biso      1.000     C          0.017943999999999998          
         C20       1.0000    0.50250   0.49750   0.76500   Biso      1.000     C          -0.107027           
         C21       1.0000    0.59200   0.02000   0.85500   Biso      1.000     C          0.017838999999999997          
         C22       1.0000    0.53940   0.91440   0.96500   Biso      1.000     C          -0.069463           
         C23       1.0000    0.42800   0.02000   0.85500   Biso      1.000     C          0.01795   
         C24       1.0000    0.62500   0.53940   0.03500   Biso      1.000     C          -0.067754           
         C25       1.0000    0.37500   0.91440   0.96500   Biso      1.000     C          -0.06930599999999999          
         C26       1.0000    0.57200   0.59200   0.14500   Biso      1.000     C          0.01814   
         C27       1.0000    0.59200   0.57200   0.85500   Biso      1.000     C          0.01814   
         C28       1.0000    0.91440   0.37500   0.03500   Biso      1.000     C          -0.069303           
         C29       1.0000    0.46060   0.08560   0.03500   Biso      1.000     C          -0.069463           
         C30       1.0000    0.53940   0.62500   0.96500   Biso      1.000     C          -0.067754           
         C31       1.0000    0.98000   0.40800   0.85500   Biso      1.000     C          0.017846  
         C32       1.0000    0.02000   0.42800   0.14500   Biso      1.000     C          0.017950999999999998          
         C33       1.0000    0.91440   0.53940   0.03500   Biso      1.000     C          -0.069462           
         C34       1.0000    0.98000   0.57200   0.85500   Biso      1.000     C          0.017943999999999998          
         C35       1.0000    0.46060   0.37500   0.03500   Biso      1.000     C          -0.067754           
         C36       1.0000    0.42800   0.40800   0.85500   Biso      1.000     C          0.018134  
         C37       1.0000    0.62500   0.08560   0.03500   Biso      1.000     C          -0.06930499999999999          
         C38       1.0000    0.40800   0.98000   0.14500   Biso      1.000     C          0.017845  
         Cu1       1.0000    0.77954   0.38977   0.75280   Biso      1.000     Cu          0.27300100000000005           
         Cu2       1.0000    0.66667   0.33333   0.41940   Biso      1.000     Cu          0.039715  
         Cu3       1.0000    0.61023   0.38977   0.75280   Biso      1.000     Cu          0.272108  
         Cu4       1.0000    0.33333   0.66667   0.58060   Biso      1.000     Cu          0.039715  
         Cu5       1.0000    0.61023   0.22046   0.75280   Biso      1.000     Cu          0.27300599999999997           
         Cu6       1.0000    0.22046   0.61023   0.24720   Biso      1.000     Cu          0.27300100000000005           
         Cu7       1.0000    0.38977   0.77954   0.24720   Biso      1.000     Cu          0.27300399999999997           
         Cu8       1.0000    0.38977   0.61023   0.24720   Biso      1.000     Cu          0.27210700000000004           
         I1        1.0000    0.47017   0.23508   0.53691   Biso      1.000     I          -0.173015           
         I2        1.0000    0.23509   0.76492   0.46309   Biso      1.000     I          -0.172566           
         I3        1.0000    0.52983   0.76491   0.46309   Biso      1.000     I          -0.173014           
         I4        1.0000    0.23508   0.47017   0.46309   Biso      1.000     I          -0.173015           
         I5        1.0000    0.76492   0.23509   0.53691   Biso      1.000     I          -0.172567           
         I6        1.0000    0.76491   0.52983   0.53691   Biso      1.000     I          -0.173015           
         N1        1.0000    0.54285   0.45715   0.90430   Biso      1.000     N          0.10593499999999999           
         N2        1.0000    0.66667   0.33333   0.98200   Biso      1.000     N          -0.360457           
         N3        1.0000    0.08570   0.54285   0.09570   Biso      1.000     N          0.10674700000000001           
         N4        1.0000    0.33333   0.66667   0.01800   Biso      1.000     N          -0.360457           
         N5        1.0000    0.45715   0.54285   0.09570   Biso      1.000     N          0.10593499999999999           
         N6        1.0000    0.91430   0.45715   0.90430   Biso      1.000     N          0.106748  
         N7        1.0000    0.45715   0.91430   0.09570   Biso      1.000     N          0.10674700000000001           
         N8        1.0000    0.54285   0.08570   0.90430   Biso      1.000     N          0.10674700000000001 