
##########################################################################
#               Crystallographic Information Format file
#               Produced by PyCifRW module
#
#  This is a CIF file.  CIF has been adopted by the International
#  Union of Crystallography as the standard for data archiving and
#  transmission.
#
#  For information on this file format, follow the CIF links at
#  http://www.iucr.org
##########################################################################

data_image0

_cell_length_a                          8.3585
_cell_length_b                          12.3865
_cell_length_c                          12.6474
_cell_angle_alpha                       109.88
_cell_angle_beta                        97.148
_cell_angle_gamma                       105.321
_symmetry_space_group_name_H-M          'P 1'
_symmetry_int_tables_number             1
loop_
  _symmetry_equiv_pos_as_xyz
         'x, y, z' 
loop_
  _atom_site_label
  _atom_site_occupancy
  _atom_site_fract_x
  _atom_site_fract_y
  _atom_site_fract_z
  _atom_site_thermal_displace_type
  _atom_site_B_iso_or_equiv
  _atom_site_type_symbol
  _atom_site_charge
         C1        1.0000    0.71650   0.51290   0.65020   Biso      1.000     C          0.613816  
         C2        1.0000    0.37810   0.70120   0.78310   Biso      1.000     C          0.286761  
         C3        1.0000    0.90630   0.47590   0.17032   Biso      1.000     C          -0.258253           
         C4        1.0000    0.99030   0.68240   0.32950   Biso      1.000     C          -0.272486           
         C5        1.0000    0.40630   0.82580   0.56420   Biso      1.000     C          0.679634  
         C6        1.0000    0.28350   0.48710   0.34980   Biso      1.000     C          0.613816  
         C7        1.0000    0.00970   0.31760   0.67050   Biso      1.000     C          -0.272486           
         C8        1.0000    0.18780   0.49190   0.64770   Biso      1.000     C          0.067071  
         C9        1.0000    0.27380   0.51580   0.47210   Biso      1.000     C          -0.213751           
         C10       1.0000    0.35610   0.61820   0.56980   Biso      1.000     C          0.131434  
         C11       1.0000    0.59370   0.17420   0.43580   Biso      1.000     C          0.679634  
         C12       1.0000    0.10920   0.23030   0.62385   Biso      1.000     C          0.661791  
         C13       1.0000    0.09370   0.52410   0.82968   Biso      1.000     C          -0.258253           
         C14       1.0000    0.51380   0.26950   0.42640   Biso      1.000     C          -0.383603           
         C15       1.0000    0.77390   0.45250   0.06430   Biso      1.000     C          0.683372  
         C16       1.0000    0.62190   0.29880   0.21690   Biso      1.000     C          0.286761  
         C17       1.0000    0.72620   0.48420   0.52790   Biso      1.000     C          -0.213751           
         C18       1.0000    0.64390   0.38180   0.43020   Biso      1.000     C          0.131434  
         C19       1.0000    0.69410   0.39440   0.32910   Biso      1.000     C          -0.146912           
         C20       1.0000    0.81220   0.50810   0.35230   Biso      1.000     C          0.067071  
         C21       1.0000    0.30590   0.60560   0.67090   Biso      1.000     C          -0.146912           
         C22       1.0000    0.22610   0.54750   0.93570   Biso      1.000     C          0.683372  
         C23       1.0000    0.89080   0.76970   0.37615   Biso      1.000     C          0.661791  
         C24       1.0000    0.48620   0.73050   0.57360   Biso      1.000     C          -0.383603           
         H1        1.0000    0.57200   0.12900   0.76800   Biso      1.000     H          0.494933  
         H2        1.0000    0.57450   0.76630   0.64700   Biso      1.000     H          0.16331   
         H3        1.0000    0.91500   0.30360   0.60670   Biso      1.000     H          0.127515  
         H4        1.0000    0.95850   0.29780   0.73090   Biso      1.000     H          0.148702  
         H5        1.0000    0.97930   0.48700   0.83980   Biso      1.000     H          0.140299  
         H6        1.0000    0.09770   0.60330   0.82590   Biso      1.000     H          0.16      
         H7        1.0000    0.54310   0.70770   0.50910   Biso      1.000     H          0.140426  
         H8        1.0000    0.39200   0.83800   0.31400   Biso      1.000     H          0.473854  
         H9        1.0000    0.42800   0.87100   0.23200   Biso      1.000     H          0.494933  
         H10       1.0000    0.60800   0.16200   0.68600   Biso      1.000     H          0.473854  
         H11       1.0000    0.42550   0.23370   0.35300   Biso      1.000     H          0.16331   
         H12       1.0000    0.08500   0.69640   0.39330   Biso      1.000     H          0.127515  
         H13       1.0000    0.45690   0.29230   0.49090   Biso      1.000     H          0.140426  
         H14       1.0000    0.90230   0.39670   0.17410   Biso      1.000     H          0.16      
         H15       1.0000    0.02070   0.51300   0.16020   Biso      1.000     H          0.140299  
         H16       1.0000    0.04150   0.70220   0.26910   Biso      1.000     H          0.148702  
         N1        1.0000    0.43820   0.78070   0.87120   Biso      1.000     N          -0.433239           
         N2        1.0000    0.88730   0.55429   0.28088   Biso      1.000     N          -0.013832           
         N3        1.0000    0.11270   0.44571   0.71912   Biso      1.000     N          -0.013832           
         N4        1.0000    0.56180   0.21930   0.12880   Biso      1.000     N          -0.433239           
         O1        1.0000    0.26440   0.25859   0.67064   Biso      1.000     O          -0.675981           
         O2        1.0000    0.02590   0.13041   0.54187   Biso      1.000     O          -0.703156           
         O3        1.0000    0.20690   0.60995   0.03249   Biso      1.000     O          -0.657564           
         O4        1.0000    0.34670   0.50536   0.92535   Biso      1.000     O          -0.736456           
         O5        1.0000    0.69740   0.14922   0.37546   Biso      1.000     O          -0.612587           
         O6        1.0000    0.54970   0.12130   0.50208   Biso      1.000     O          -0.764223           
         O7        1.0000    0.45140   0.83163   0.26843   Biso      1.000     O          -0.909186           
         O8        1.0000    0.64080   0.42856   0.67841   Biso      1.000     O          -0.686923           
         O9        1.0000    0.54860   0.16837   0.73157   Biso      1.000     O          -0.909186           
         O10       1.0000    0.35920   0.57144   0.32159   Biso      1.000     O          -0.686923           
         O11       1.0000    0.79050   0.62341   0.71948   Biso      1.000     O          -0.60291  
         O12       1.0000    0.45030   0.87870   0.49792   Biso      1.000     O          -0.764223           
         O13       1.0000    0.30260   0.85078   0.62454   Biso      1.000     O          -0.612587           
         O14       1.0000    0.73560   0.74141   0.32936   Biso      1.000     O          -0.675981           
         O15       1.0000    0.97410   0.86959   0.45813   Biso      1.000     O          -0.703156           
         O16       1.0000    0.79310   0.39005   0.96751   Biso      1.000     O          -0.657564           
         O17       1.0000    0.65330   0.49464   0.07465   Biso      1.000     O          -0.736456           
         O18       1.0000    0.20950   0.37659   0.28052   Biso      1.000     O          -0.60291  
         S1        1.0000    0.86161   0.59771   0.49878   Biso      1.000     S          0.109712  
         S2        1.0000    0.13839   0.40229   0.50122   Biso      1.000     S          0.109712  
         Sr1       1.0000    0.73255   0.97086   0.44299   Biso      1.000     Sr          1.479078  
         Sr2       1.0000    0.26745   0.02914   0.55701   Biso      1.000     Sr          1.479078  
         Sr3       1.0000    0.47719   0.61332   0.16390   Biso      1.000     Sr          1.509353  
         Sr4       1.0000    0.52281   0.38668   0.83610   Biso      1.000     Sr          1.509354 