
##########################################################################
#               Crystallographic Information Format file
#               Produced by PyCifRW module
#
#  This is a CIF file.  CIF has been adopted by the International
#  Union of Crystallography as the standard for data archiving and
#  transmission.
#
#  For information on this file format, follow the CIF links at
#  http://www.iucr.org
##########################################################################

data_image0

_cell_length_a                          7.8529
_cell_length_b                          12.186
_cell_length_c                          13.2217
_cell_angle_alpha                       112.156
_cell_angle_beta                        105.457
_cell_angle_gamma                       91.541
_symmetry_space_group_name_H-M          'P 1'
_symmetry_int_tables_number             1
loop_
  _symmetry_equiv_pos_as_xyz
         'x, y, z' 
loop_
  _atom_site_label
  _atom_site_occupancy
  _atom_site_fract_x
  _atom_site_fract_y
  _atom_site_fract_z
  _atom_site_thermal_displace_type
  _atom_site_B_iso_or_equiv
  _atom_site_type_symbol
  _atom_site_charge
         C1        1.0000    0.36290   0.63500   0.77410   Biso      1.000     C          -0.372604           
         C2        1.0000    0.53700   0.38710   0.73000   Biso      1.000     C          0.5483899999999999  
         C3        1.0000    0.14610   0.21700   0.40960   Biso      1.000     C          -0.037948           
         C4        1.0000    0.20810   0.16480   0.30590   Biso      1.000     C          -0.35793200000000003          
         C5        1.0000    0.05350   0.09240   0.20310   Biso      1.000     C          0.728435  
         C6        1.0000    0.57780   0.19090   0.73700   Biso      1.000     C          -0.037936000000000004         
         C7        1.0000    0.46700   0.16660   0.80490   Biso      1.000     C          -0.365725           
         C8        1.0000    0.55400   0.09470   0.87010   Biso      1.000     C          0.735409  
         C9        1.0000    0.50470   0.58190   0.72020   Biso      1.000     C          -0.051302999999999994         
         C10       1.0000    0.40610   0.76840   0.84360   Biso      1.000     C          0.7435430000000001  
         C11       1.0000    0.66040   0.60130   0.44130   Biso      1.000     C          0.551087  
         C12       1.0000    0.63380   0.79480   0.42750   Biso      1.000     C          0.555758  
         C13       1.0000    0.46300   0.61290   0.27000   Biso      1.000     C          0.548389  
         C14       1.0000    0.85390   0.78300   0.59040   Biso      1.000     C          -0.037948           
         C15       1.0000    0.79190   0.83520   0.69410   Biso      1.000     C          -0.35793200000000003          
         C16       1.0000    0.94650   0.90760   0.79690   Biso      1.000     C          0.728435  
         C17       1.0000    0.42220   0.80910   0.26300   Biso      1.000     C          -0.037936000000000004         
         C18       1.0000    0.53300   0.83340   0.19510   Biso      1.000     C          -0.365726           
         C19       1.0000    0.44600   0.90530   0.12990   Biso      1.000     C          0.73541   
         C20       1.0000    0.49530   0.41810   0.27980   Biso      1.000     C          -0.051302999999999994         
         C21       1.0000    0.63710   0.36500   0.22590   Biso      1.000     C          -0.372604           
         C22       1.0000    0.59390   0.23160   0.15640   Biso      1.000     C          0.7435430000000001  
         C23       1.0000    0.36620   0.20520   0.57250   Biso      1.000     C          0.555758  
         C24       1.0000    0.33960   0.39870   0.55870   Biso      1.000     C          0.551087  
         Er1       1.0000    0.74970   0.98145   0.01074   Biso      1.000     Er          2.080674  
         Er2       1.0000    0.25030   0.01855   0.98926   Biso      1.000     Er          2.080674  
         H1        1.0000    0.65360   0.40410   0.17680   Biso      1.000     H          0.15351099999999998           
         H2        1.0000    0.07680   0.15370   0.41530   Biso      1.000     H          0.113641  
         H3        1.0000    0.06800   0.27500   0.40000   Biso      1.000     H          0.111802  
         H4        1.0000    0.26190   0.22870   0.29250   Biso      1.000     H          0.147284  
         H5        1.0000    0.29770   0.11420   0.31820   Biso      1.000     H          0.158219  
         H6        1.0000    0.59390   0.11550   0.68190   Biso      1.000     H          0.11426300000000002           
         H7        1.0000    0.69480   0.23220   0.78800   Biso      1.000     H          0.114803  
         H8        1.0000    0.44810   0.24210   0.85840   Biso      1.000     H          0.155223  
         H9        1.0000    0.35120   0.12340   0.75350   Biso      1.000     H          0.156757  
         H10       1.0000    0.61990   0.60510   0.77840   Biso      1.000     H          0.111827  
         H11       1.0000    0.51130   0.61250   0.66330   Biso      1.000     H          0.106226  
         H12       1.0000    0.34640   0.59590   0.82320   Biso      1.000     H          0.15351099999999998           
         H13       1.0000    0.74910   0.38150   0.28590   Biso      1.000     H          0.151876  
         H14       1.0000    0.38010   0.39490   0.22160   Biso      1.000     H          0.111827  
         H15       1.0000    0.92320   0.84630   0.58470   Biso      1.000     H          0.11364   
         H16       1.0000    0.93200   0.72500   0.60000   Biso      1.000     H          0.111802  
         H17       1.0000    0.73810   0.77130   0.70750   Biso      1.000     H          0.147284  
         H18       1.0000    0.70230   0.88580   0.68180   Biso      1.000     H          0.15822   
         H19       1.0000    0.40610   0.88450   0.31810   Biso      1.000     H          0.11426300000000002           
         H20       1.0000    0.30520   0.76780   0.21200   Biso      1.000     H          0.114803  
         H21       1.0000    0.55190   0.75790   0.14160   Biso      1.000     H          0.155223  
         H22       1.0000    0.64880   0.87660   0.24650   Biso      1.000     H          0.15675799999999998           
         H23       1.0000    0.25090   0.61850   0.71410   Biso      1.000     H          0.151876  
         H24       1.0000    0.48870   0.38750   0.33670   Biso      1.000     H          0.106226  
         N1        1.0000    0.50610   0.73590   0.32410   Biso      1.000     N          -0.24105900000000002          
         N2        1.0000    0.70820   0.72420   0.48320   Biso      1.000     N          -0.24453699999999998          
         N3        1.0000    0.53690   0.54970   0.33410   Biso      1.000     N          -0.218505           
         N4        1.0000    0.29180   0.27580   0.51680   Biso      1.000     N          -0.24453699999999998          
         N5        1.0000    0.46310   0.45030   0.66590   Biso      1.000     N          -0.218505           
         N6        1.0000    0.49390   0.26410   0.67590   Biso      1.000     N          -0.24105900000000002          
         O1        1.0000    0.44230   0.18100   0.13930   Biso      1.000     O          -0.687333           
         O2        1.0000    0.71760   0.18140   0.11960   Biso      1.000     O          -0.665768           
         O3        1.0000    0.53550   0.95000   0.08520   Biso      1.000     O          -0.79056  
         O4        1.0000    0.72480   0.54280   0.49430   Biso      1.000     O          -0.486853           
         O5        1.0000    0.36250   0.56360   0.17350   Biso      1.000     O          -0.48922  
         O6        1.0000    0.94460   0.91360   0.89600   Biso      1.000     O          -0.798709           
         O7        1.0000    0.28590   0.91910   0.11890   Biso      1.000     O          -0.6107560000000001           
         O8        1.0000    0.07630   0.95750   0.78570   Biso      1.000     O          -0.600212           
         O9        1.0000    0.92370   0.04250   0.21430   Biso      1.000     O          -0.600212           
         O10       1.0000    0.27520   0.45720   0.50570   Biso      1.000     O          -0.486853           
         O11       1.0000    0.63750   0.43640   0.82650   Biso      1.000     O          -0.48921899999999996          
         O12       1.0000    0.71410   0.08090   0.88110   Biso      1.000     O          -0.610755           
         O13       1.0000    0.46450   0.05000   0.91480   Biso      1.000     O          -0.79056  
         O14       1.0000    0.28240   0.81860   0.88040   Biso      1.000     O          -0.665768           
         O15       1.0000    0.55770   0.81900   0.86070   Biso      1.000     O          -0.687333           
         O16       1.0000    0.05540   0.08640   0.10400   Biso      1.000     O          -0.798709           
         O17       1.0000    0.32280   0.09780   0.53100   Biso      1.000     O          -0.48176800000000003          
         O18       1.0000    0.67720   0.90220   0.46900   Biso      1.000     O          -0.48176800000000003 