
##########################################################################
#               Crystallographic Information Format file
#               Produced by PyCifRW module
#
#  This is a CIF file.  CIF has been adopted by the International
#  Union of Crystallography as the standard for data archiving and
#  transmission.
#
#  For information on this file format, follow the CIF links at
#  http://www.iucr.org
##########################################################################

data_image0

_cell_length_a                          7.0077
_cell_length_b                          7.8169
_cell_length_c                          15.6586
_cell_angle_alpha                       98.971
_cell_angle_beta                        90
_cell_angle_gamma                       90
_symmetry_space_group_name_H-M          'P 1'
_symmetry_int_tables_number             1
loop_
  _symmetry_equiv_pos_as_xyz
         'x, y, z' 
loop_
  _atom_site_label
  _atom_site_occupancy
  _atom_site_fract_x
  _atom_site_fract_y
  _atom_site_fract_z
  _atom_site_thermal_displace_type
  _atom_site_B_iso_or_equiv
  _atom_site_type_symbol
  _atom_site_charge
         C1        1.0000    0.45470   0.33370   0.98084   Biso      1.000     C          -0.00406  
         C2        1.0000    0.94420   0.41690   0.42358   Biso      1.000     C          0.037531  
         C3        1.0000    0.61690   0.04630   0.44076   Biso      1.000     C          -0.018191           
         C4        1.0000    0.48880   0.83160   0.50550   Biso      1.000     C          0.024651  
         C5        1.0000    0.92540   0.56360   0.18555   Biso      1.000     C          0.46096400000000004           
         C6        1.0000    0.44420   0.58310   0.07642   Biso      1.000     C          0.037542  
         C7        1.0000    0.11690   0.95370   0.05924   Biso      1.000     C          -0.018191           
         C8        1.0000    0.98880   0.16840   0.99450   Biso      1.000     C          0.024646  
         C9        1.0000    0.42540   0.43640   0.31445   Biso      1.000     C          0.46098100000000003           
         C10       1.0000    0.95470   0.66630   0.51916   Biso      1.000     C          -0.004059           
         C11       1.0000    0.04530   0.33370   0.48084   Biso      1.000     C          -0.0039049999999999996        
         C12       1.0000    0.38310   0.95370   0.55924   Biso      1.000     C          -0.017529           
         C13       1.0000    0.51120   0.16840   0.49450   Biso      1.000     C          0.024719  
         C14       1.0000    0.07460   0.43640   0.81445   Biso      1.000     C          0.46138999999999997           
         C15       1.0000    0.54530   0.66630   0.01916   Biso      1.000     C          -0.00389  
         C16       1.0000    0.55580   0.41690   0.92358   Biso      1.000     C          0.037049  
         C17       1.0000    0.88310   0.04630   0.94076   Biso      1.000     C          -0.017563           
         C18       1.0000    0.01120   0.83160   0.00550   Biso      1.000     C          0.024699000000000002          
         C19       1.0000    0.57460   0.56360   0.68555   Biso      1.000     C          0.46137399999999995           
         C20       1.0000    0.05580   0.58310   0.57642   Biso      1.000     C          0.037049  
         H1        1.0000    0.02240   0.71530   0.01090   Biso      1.000     H          0.108875  
         H2        1.0000    0.63470   0.65210   0.66250   Biso      1.000     H          -0.004058           
         H3        1.0000    0.59250   0.35480   0.87060   Biso      1.000     H          0.102574  
         H4        1.0000    0.92530   0.78310   0.53460   Biso      1.000     H          0.09413099999999999           
         H5        1.0000    0.90750   0.35480   0.37060   Biso      1.000     H          0.102674  
         H6        1.0000    0.69730   0.08270   0.39990   Biso      1.000     H          0.09932200000000001           
         H7        1.0000    0.47760   0.71530   0.51090   Biso      1.000     H          0.10897799999999999           
         H8        1.0000    0.86530   0.65210   0.16250   Biso      1.000     H          -0.00417  
         H9        1.0000    0.42530   0.21690   0.96540   Biso      1.000     H          0.094165  
         H10       1.0000    0.80270   0.08270   0.89990   Biso      1.000     H          0.09968300000000001           
         H11       1.0000    0.19730   0.91730   0.10010   Biso      1.000     H          0.099329  
         H12       1.0000    0.97760   0.28470   0.98910   Biso      1.000     H          0.108983  
         H13       1.0000    0.40750   0.64520   0.12940   Biso      1.000     H          0.102699  
         H14       1.0000    0.07470   0.21690   0.46540   Biso      1.000     H          0.093935  
         H15       1.0000    0.09250   0.64520   0.62940   Biso      1.000     H          0.10254500000000001           
         H16       1.0000    0.30270   0.91730   0.60010   Biso      1.000     H          0.099677  
         H17       1.0000    0.52240   0.28470   0.48910   Biso      1.000     H          0.10887100000000001           
         H18       1.0000    0.13470   0.34790   0.83750   Biso      1.000     H          -0.0040479999999999995        
         H19       1.0000    0.57470   0.78310   0.03460   Biso      1.000     H          0.093968  
         H20       1.0000    0.36530   0.34790   0.33750   Biso      1.000     H          -0.004159           
         N1        1.0000    0.10169   0.41659   0.55756   Biso      1.000     N          -0.138786           
         N2        1.0000    0.39831   0.41659   0.05756   Biso      1.000     N          -0.13888699999999998          
         N3        1.0000    0.39364   0.12229   0.55394   Biso      1.000     N          -0.18111300000000002          
         N4        1.0000    0.60169   0.58341   0.94244   Biso      1.000     N          -0.138787           
         N5        1.0000    0.89364   0.87771   0.94606   Biso      1.000     N          -0.181143           
         N6        1.0000    0.89831   0.58341   0.44244   Biso      1.000     N          -0.138975           
         N7        1.0000    0.60636   0.87771   0.44606   Biso      1.000     N          -0.180472           
         N8        1.0000    0.10636   0.12229   0.05394   Biso      1.000     N          -0.180497           
         Ni1       1.0000    0.74343   0.69995   0.35065   Biso      1.000     Ni          0.336753  
         Ni2       1.0000    0.75657   0.69995   0.85065   Biso      1.000     Ni          0.339629  
         Ni3       1.0000    0.25657   0.30005   0.64935   Biso      1.000     Ni          0.339418  
         Ni4       1.0000    0.24343   0.30005   0.14935   Biso      1.000     Ni          0.336731  
         O1        1.0000    0.88182   0.53363   0.25787   Biso      1.000     O          -0.459025           
         O2        1.0000    0.03704   0.48008   0.13244   Biso      1.000     O          -0.4605   
         O3        1.0000    0.38182   0.46637   0.24213   Biso      1.000     O          -0.45902600000000005          
         O4        1.0000    0.53704   0.51992   0.36756   Biso      1.000     O          -0.46045200000000003          
         O5        1.0000    0.11818   0.46637   0.74213   Biso      1.000     O          -0.459966           
         O6        1.0000    0.96296   0.51992   0.86756   Biso      1.000     O          -0.462032           
         O7        1.0000    0.61818   0.53363   0.75787   Biso      1.000     O          -0.460012           
         O8        1.0000    0.46296   0.48008   0.63244   Biso      1.000     O          -0.46203999999999995 