
##########################################################################
#               Crystallographic Information Format file
#               Produced by PyCifRW module
#
#  This is a CIF file.  CIF has been adopted by the International
#  Union of Crystallography as the standard for data archiving and
#  transmission.
#
#  For information on this file format, follow the CIF links at
#  http://www.iucr.org
##########################################################################

data_image0

_cell_length_a                          12.0201
_cell_length_b                          12.9383
_cell_length_c                          20.7463
_cell_angle_alpha                       90
_cell_angle_beta                        90
_cell_angle_gamma                       90.1621
_symmetry_space_group_name_H-M          'P 1'
_symmetry_int_tables_number             1
loop_
  _symmetry_equiv_pos_as_xyz
         'x, y, z' 
loop_
  _atom_site_label
  _atom_site_occupancy
  _atom_site_fract_x
  _atom_site_fract_y
  _atom_site_fract_z
  _atom_site_thermal_displace_type
  _atom_site_B_iso_or_equiv
  _atom_site_type_symbol
  _atom_site_charge
         C1        1.0000    0.46760   0.33470   0.62352   Biso      1.000     C          -0.282867           
         C2        1.0000    0.43700   0.16840   0.95060   Biso      1.000     C          0.046178  
         C3        1.0000    0.38170   0.31280   0.89626   Biso      1.000     C          0.088976  
         C4        1.0000    0.44470   0.37520   0.93522   Biso      1.000     C          -0.208489           
         C5        1.0000    0.95740   0.32910   0.51750   Biso      1.000     C          0.092019  
         C6        1.0000    0.90720   0.24890   0.55068   Biso      1.000     C          -0.199674           
         C7        1.0000    0.96700   0.18830   0.59158   Biso      1.000     C          0.064095  
         C8        1.0000    0.12570   0.27400   0.56755   Biso      1.000     C          0.08186   
         C9        1.0000    0.07090   0.33890   0.52567   Biso      1.000     C          -0.209313           
         C10       1.0000    0.57530   0.50480   0.02541   Biso      1.000     C          -0.200832           
         C11       1.0000    0.65420   0.35520   0.06946   Biso      1.000     C          -0.186156           
         C12       1.0000    0.64330   0.56210   0.06511   Biso      1.000     C          0.080847  
         C13       1.0000    0.71900   0.41780   0.10823   Biso      1.000     C          0.026293  
         C14       1.0000    0.58010   0.39760   0.02674   Biso      1.000     C          0.094459  
         C15       1.0000    0.89380   0.40040   0.47539   Biso      1.000     C          0.09123   
         C16       1.0000    0.78450   0.42720   0.48925   Biso      1.000     C          -0.199843           
         C17       1.0000    0.72790   0.49400   0.44965   Biso      1.000     C          0.046909  
         C18       1.0000    0.87770   0.51350   0.38428   Biso      1.000     C          0.056301  
         C19       1.0000    0.50100   0.22600   0.99210   Biso      1.000     C          -0.200028           
         C20       1.0000    0.94040   0.44610   0.42078   Biso      1.000     C          -0.210243           
         C21       1.0000    0.50830   0.33300   0.98457   Biso      1.000     C          0.090694  
         C22       1.0000    0.78680   0.40580   0.82253   Biso      1.000     C          -0.350339           
         C23       1.0000    0.50860   0.39910   0.73446   Biso      1.000     C          -0.29253  
         C24       1.0000    0.38450   0.54150   0.65150   Biso      1.000     C          0.395147  
         C25       1.0000    0.43390   0.51500   0.58674   Biso      1.000     C          -0.319249           
         C26       1.0000    0.52110   0.43150   0.59461   Biso      1.000     C          0.056246  
         C27       1.0000    0.61340   0.46890   0.64023   Biso      1.000     C          -0.277279           
         C28       1.0000    0.56190   0.49650   0.70500   Biso      1.000     C          0.070352  
         C29       1.0000    0.47530   0.57920   0.69680   Biso      1.000     C          -0.353094           
         C30       1.0000    0.35890   0.26070   0.71336   Biso      1.000     C          0.582241  
         C31       1.0000    0.01000   0.31310   0.81885   Biso      1.000     C          0.075849  
         C32       1.0000    0.06710   0.37990   0.87058   Biso      1.000     C          -0.292815           
         C33       1.0000    0.96780   0.38290   0.76443   Biso      1.000     C          -0.282188           
         C34       1.0000    0.91050   0.25830   0.85009   Biso      1.000     C          -0.358991           
         C35       1.0000    0.82850   0.33670   0.87722   Biso      1.000     C          0.399098  
         C36       1.0000    0.88600   0.40230   0.92747   Biso      1.000     C          -0.3218   
         C37       1.0000    0.98380   0.45800   0.89760   Biso      1.000     C          0.058926  
         C38       1.0000    0.94390   0.52780   0.84320   Biso      1.000     C          -0.278998           
         C39       1.0000    0.88620   0.46270   0.79274   Biso      1.000     C          0.064736  
         C40       1.0000    0.09040   0.23200   0.79277   Biso      1.000     C          0.58279   
         C41       1.0000    0.91590   0.85910   0.31052   Biso      1.000     C          0.071209  
         C42       1.0000    0.82990   0.94560   0.31940   Biso      1.000     C          -0.355782           
         C43       1.0000    0.96760   0.83470   0.37648   Biso      1.000     C          -0.282867           
         C44       1.0000    0.88170   0.81280   0.10374   Biso      1.000     C          0.088976  
         C45       1.0000    0.94470   0.87520   0.06478   Biso      1.000     C          -0.208489           
         C46       1.0000    0.45740   0.82910   0.48250   Biso      1.000     C          0.092022  
         C47       1.0000    0.40720   0.74890   0.44932   Biso      1.000     C          -0.199675           
         C48       1.0000    0.46700   0.68830   0.40842   Biso      1.000     C          0.064095  
         C49       1.0000    0.62570   0.77400   0.43245   Biso      1.000     C          0.081861  
         C50       1.0000    0.57090   0.83890   0.47433   Biso      1.000     C          -0.209314           
         C51       1.0000    0.07530   0.00480   0.97459   Biso      1.000     C          -0.200832           
         C52       1.0000    0.15420   0.85520   0.93054   Biso      1.000     C          -0.186155           
         C53       1.0000    0.14330   0.06210   0.93489   Biso      1.000     C          0.080848  
         C54       1.0000    0.21900   0.91780   0.89177   Biso      1.000     C          0.026295  
         C55       1.0000    0.08010   0.89760   0.97326   Biso      1.000     C          0.094459  
         C56       1.0000    0.39380   0.90040   0.52461   Biso      1.000     C          0.091226  
         C57       1.0000    0.28450   0.92720   0.51075   Biso      1.000     C          -0.199844           
         C58       1.0000    0.22790   0.99400   0.55035   Biso      1.000     C          0.046908  
         C59       1.0000    0.37770   0.01350   0.61572   Biso      1.000     C          0.0563    
         C60       1.0000    0.44040   0.94610   0.57922   Biso      1.000     C          -0.210244           
         C61       1.0000    0.93700   0.66840   0.04940   Biso      1.000     C          0.046178  
         C62       1.0000    0.00100   0.72600   0.00790   Biso      1.000     C          -0.200028           
         C63       1.0000    0.00830   0.83300   0.01543   Biso      1.000     C          0.090694  
         C64       1.0000    0.59040   0.73200   0.20723   Biso      1.000     C          0.58279   
         C65       1.0000    0.00860   0.89910   0.26554   Biso      1.000     C          -0.29253  
         C66       1.0000    0.88450   0.04150   0.34850   Biso      1.000     C          0.395147  
         C67       1.0000    0.93390   0.01500   0.41326   Biso      1.000     C          -0.319249           
         C68       1.0000    0.02110   0.93150   0.40539   Biso      1.000     C          0.056246  
         C69       1.0000    0.11340   0.96890   0.35977   Biso      1.000     C          -0.27728  
         C70       1.0000    0.06190   0.99650   0.29500   Biso      1.000     C          0.070352  
         C71       1.0000    0.97530   0.07920   0.30320   Biso      1.000     C          -0.353093           
         C72       1.0000    0.85890   0.76070   0.28664   Biso      1.000     C          0.58224   
         C73       1.0000    0.32990   0.44560   0.68060   Biso      1.000     C          -0.355782           
         C74       1.0000    0.51000   0.81310   0.18115   Biso      1.000     C          0.075849  
         C75       1.0000    0.46780   0.88290   0.23557   Biso      1.000     C          -0.282188           
         C76       1.0000    0.41050   0.75830   0.14991   Biso      1.000     C          -0.358991           
         C77       1.0000    0.32850   0.83670   0.12278   Biso      1.000     C          0.399098  
         C78       1.0000    0.38600   0.90230   0.07253   Biso      1.000     C          -0.3218   
         C79       1.0000    0.48380   0.95800   0.10240   Biso      1.000     C          0.058927  
         C80       1.0000    0.44390   0.02780   0.15680   Biso      1.000     C          -0.278998           
         C81       1.0000    0.38620   0.96270   0.20726   Biso      1.000     C          0.064736  
         C82       1.0000    0.28680   0.90580   0.17747   Biso      1.000     C          -0.350339           
         C83       1.0000    0.56710   0.87990   0.12942   Biso      1.000     C          -0.292815           
         C84       1.0000    0.41590   0.35910   0.68948   Biso      1.000     C          0.071208  
         Co1       1.0000    0.30675   0.11759   0.82664   Biso      1.000     Co          0.524939  
         Co2       1.0000    0.16542   0.11470   0.67384   Biso      1.000     Co          0.532328  
         Co3       1.0000    0.80675   0.61759   0.17336   Biso      1.000     Co          0.524935  
         Co4       1.0000    0.66542   0.61470   0.32616   Biso      1.000     Co          0.532319  
         H1        1.0000    0.93420   0.59720   0.04340   Biso      1.000     H          0.083405  
         H2        1.0000    0.91150   0.35890   0.96260   Biso      1.000     H          0.117198  
         H3        1.0000    0.83400   0.45230   0.94490   Biso      1.000     H          0.115936  
         H4        1.0000    0.02050   0.50020   0.93060   Biso      1.000     H          0.055751  
         H5        1.0000    0.00670   0.56370   0.82420   Biso      1.000     H          0.102912  
         H6        1.0000    0.89280   0.57900   0.86010   Biso      1.000     H          0.102824  
         H7        1.0000    0.85970   0.50780   0.75810   Biso      1.000     H          0.056811  
         H8        1.0000    0.75000   0.36420   0.79000   Biso      1.000     H          0.116867  
         H9        1.0000    0.73360   0.45540   0.83910   Biso      1.000     H          0.117935  
         H10       1.0000    0.53960   0.19370   0.02530   Biso      1.000     H          0.117925  
         H11       1.0000    0.43420   0.09720   0.95660   Biso      1.000     H          0.083405  
         H12       1.0000    0.03960   0.69370   0.97470   Biso      1.000     H          0.117925  
         H13       1.0000    0.87350   0.21550   0.81830   Biso      1.000     H          0.12233   
         H14       1.0000    0.83170   0.23620   0.54500   Biso      1.000     H          0.123928  
         H15       1.0000    0.92980   0.13660   0.61400   Biso      1.000     H          0.087247  
         H16       1.0000    0.20200   0.28280   0.57270   Biso      1.000     H          0.089643  
         H17       1.0000    0.11020   0.38910   0.50300   Biso      1.000     H          0.123674  
         H18       1.0000    0.52610   0.53790   0.99770   Biso      1.000     H          0.122383  
         H19       1.0000    0.66100   0.28380   0.07230   Biso      1.000     H          0.122417  
         H20       1.0000    0.63900   0.63380   0.06270   Biso      1.000     H          0.090586  
         H21       1.0000    0.76790   0.38640   0.13690   Biso      1.000     H          0.067578  
         H22       1.0000    0.33900   0.34350   0.86420   Biso      1.000     H          0.093234  
         H23       1.0000    0.93660   0.21380   0.88450   Biso      1.000     H          0.122017  
         H24       1.0000    0.03000   0.41820   0.74420   Biso      1.000     H          0.115602  
         H25       1.0000    0.74960   0.39990   0.52550   Biso      1.000     H          0.120892  
         H26       1.0000    0.19550   0.97630   0.75140   Biso      1.000     H          0.414203  
         H27       1.0000    0.30390   0.97290   0.74520   Biso      1.000     H          0.384163  
         H28       1.0000    0.29040   0.65110   0.67440   Biso      1.000     H          0.378209  
         H29       1.0000    0.69990   0.25520   0.88060   Biso      1.000     H          0.390702  
         H30       1.0000    0.29750   0.46300   0.72200   Biso      1.000     H          0.118068  
         H31       1.0000    0.27070   0.42180   0.65250   Biso      1.000     H          0.127718  
         H32       1.0000    0.41050   0.30900   0.59460   Biso      1.000     H          0.113021  
         H33       1.0000    0.52330   0.28120   0.62840   Biso      1.000     H          0.109719  
         H34       1.0000    0.56470   0.34610   0.74010   Biso      1.000     H          0.110811  
         H35       1.0000    0.93040   0.34150   0.73200   Biso      1.000     H          0.114849  
         H36       1.0000    0.47780   0.41540   0.77640   Biso      1.000     H          0.109004  
         H37       1.0000    0.46760   0.57620   0.56790   Biso      1.000     H          0.114983  
         H38       1.0000    0.55320   0.41480   0.55250   Biso      1.000     H          0.058093  
         H39       1.0000    0.65020   0.52890   0.62200   Biso      1.000     H          0.103331  
         H40       1.0000    0.66830   0.41480   0.64590   Biso      1.000     H          0.107399  
         H41       1.0000    0.62040   0.52190   0.73390   Biso      1.000     H          0.059819  
         H42       1.0000    0.44320   0.59620   0.73840   Biso      1.000     H          0.10977   
         H43       1.0000    0.50960   0.64120   0.67930   Biso      1.000     H          0.114506  
         H44       1.0000    0.13000   0.41620   0.85180   Biso      1.000     H          0.108622  
         H45       1.0000    0.09450   0.33620   0.90510   Biso      1.000     H          0.112103  
         H46       1.0000    0.37570   0.49100   0.55800   Biso      1.000     H          0.121051  
         H47       1.0000    0.65470   0.51030   0.46000   Biso      1.000     H          0.082865  
         H48       1.0000    0.44490   0.44630   0.92860   Biso      1.000     H          0.119766  
         H49       1.0000    0.01320   0.43120   0.40900   Biso      1.000     H          0.1235    
         H50       1.0000    0.33400   0.95230   0.05510   Biso      1.000     H          0.115937  
         H51       1.0000    0.52050   0.00020   0.06940   Biso      1.000     H          0.055751  
         H52       1.0000    0.50670   0.06370   0.17580   Biso      1.000     H          0.102912  
         H53       1.0000    0.39280   0.07900   0.13990   Biso      1.000     H          0.102825  
         H54       1.0000    0.35970   0.00780   0.24190   Biso      1.000     H          0.056811  
         H55       1.0000    0.25000   0.86420   0.21000   Biso      1.000     H          0.116867  
         H56       1.0000    0.23360   0.95540   0.16090   Biso      1.000     H          0.117935  
         H57       1.0000    0.91130   0.54450   0.34880   Biso      1.000     H          0.08862   
         H58       1.0000    0.41130   0.04450   0.65120   Biso      1.000     H          0.08862   
         H59       1.0000    0.15470   0.01030   0.54000   Biso      1.000     H          0.082864  
         H60       1.0000    0.24960   0.89990   0.47450   Biso      1.000     H          0.120891  
         H61       1.0000    0.26790   0.88640   0.86310   Biso      1.000     H          0.067579  
         H62       1.0000    0.13900   0.13380   0.93730   Biso      1.000     H          0.090587  
         H63       1.0000    0.16100   0.78380   0.92770   Biso      1.000     H          0.122418  
         H64       1.0000    0.02610   0.03790   0.00230   Biso      1.000     H          0.122384  
         H65       1.0000    0.61020   0.88910   0.49700   Biso      1.000     H          0.123676  
         H66       1.0000    0.70200   0.78280   0.42730   Biso      1.000     H          0.089644  
         H67       1.0000    0.42980   0.63660   0.38600   Biso      1.000     H          0.087248  
         H68       1.0000    0.33170   0.73620   0.45500   Biso      1.000     H          0.123929  
         H69       1.0000    0.94490   0.94630   0.07140   Biso      1.000     H          0.119766  
         H70       1.0000    0.83900   0.84350   0.13580   Biso      1.000     H          0.093234  
         H71       1.0000    0.41150   0.85890   0.03740   Biso      1.000     H          0.117198  
         H72       1.0000    0.37350   0.71550   0.18170   Biso      1.000     H          0.122331  
         H73       1.0000    0.51320   0.93120   0.59100   Biso      1.000     H          0.123503  
         H74       1.0000    0.43040   0.84150   0.26800   Biso      1.000     H          0.114849  
         H75       1.0000    0.43660   0.71380   0.11550   Biso      1.000     H          0.122017  
         H76       1.0000    0.80390   0.47290   0.25480   Biso      1.000     H          0.384165  
         H77       1.0000    0.79040   0.15110   0.32560   Biso      1.000     H          0.378207  
         H78       1.0000    0.19990   0.75520   0.11940   Biso      1.000     H          0.390702  
         H79       1.0000    0.79750   0.96300   0.27800   Biso      1.000     H          0.118068  
         H80       1.0000    0.77070   0.92180   0.34750   Biso      1.000     H          0.127719  
         H81       1.0000    0.91050   0.80900   0.40540   Biso      1.000     H          0.113021  
         H82       1.0000    0.02330   0.78120   0.37160   Biso      1.000     H          0.109718  
         H83       1.0000    0.06470   0.84610   0.25990   Biso      1.000     H          0.11081   
         H84       1.0000    0.97780   0.91540   0.22360   Biso      1.000     H          0.109004  
         H85       1.0000    0.87570   0.99100   0.44200   Biso      1.000     H          0.121052  
         H86       1.0000    0.69550   0.47630   0.24860   Biso      1.000     H          0.414204  
         H87       1.0000    0.05320   0.91480   0.44750   Biso      1.000     H          0.058094  
         H88       1.0000    0.15020   0.02890   0.37800   Biso      1.000     H          0.103334  
         H89       1.0000    0.16830   0.91480   0.35410   Biso      1.000     H          0.107399  
         H90       1.0000    0.12040   0.02190   0.26610   Biso      1.000     H          0.059819  
         H91       1.0000    0.94320   0.09620   0.26160   Biso      1.000     H          0.10977   
         H92       1.0000    0.00960   0.14120   0.32070   Biso      1.000     H          0.114505  
         H93       1.0000    0.63000   0.91620   0.14820   Biso      1.000     H          0.108623  
         H94       1.0000    0.59450   0.83620   0.09490   Biso      1.000     H          0.112103  
         H95       1.0000    0.53000   0.91820   0.25580   Biso      1.000     H          0.115603  
         H96       1.0000    0.96760   0.07620   0.43210   Biso      1.000     H          0.114983  
         N1        1.0000    0.27279   0.03679   0.60329   Biso      1.000     N          -0.256039           
         N2        1.0000    0.21511   0.02111   0.89317   Biso      1.000     N          -0.252441           
         N3        1.0000    0.87865   0.70915   0.09784   Biso      1.000     N          -0.221927           
         N4        1.0000    0.57571   0.69921   0.39887   Biso      1.000     N          -0.216699           
         N5        1.0000    0.71511   0.52111   0.10683   Biso      1.000     N          -0.25244  
         N6        1.0000    0.07571   0.19921   0.60113   Biso      1.000     N          -0.2167   
         N7        1.0000    0.37865   0.20915   0.90216   Biso      1.000     N          -0.221928           
         N8        1.0000    0.77279   0.53679   0.39671   Biso      1.000     N          -0.256034           
         O1        1.0000    0.68033   0.71983   0.17732   Biso      1.000     O          -0.525284           
         O2        1.0000    0.80150   0.11930   0.35914   Biso      1.000     O          -0.609982           
         O3        1.0000    0.89620   0.71450   0.23814   Biso      1.000     O          -0.563766           
         O4        1.0000    0.77645   0.73185   0.31911   Biso      1.000     O          -0.534661           
         O5        1.0000    0.74575   0.52265   0.25146   Biso      1.000     O          -0.718519           
         O6        1.0000    0.73720   0.28540   0.90783   Biso      1.000     O          -0.607397           
         O7        1.0000    0.18033   0.21983   0.82268   Biso      1.000     O          -0.525285           
         O8        1.0000    0.30150   0.61930   0.64086   Biso      1.000     O          -0.609981           
         O9        1.0000    0.39620   0.21450   0.76186   Biso      1.000     O          -0.563767           
         O10       1.0000    0.27645   0.23185   0.68089   Biso      1.000     O          -0.534663           
         O11       1.0000    0.24575   0.02265   0.74854   Biso      1.000     O          -0.71852  
         O12       1.0000    0.56025   0.67905   0.25541   Biso      1.000     O          -0.570486           
         O13       1.0000    0.06025   0.17905   0.74459   Biso      1.000     O          -0.570487           
         O14       1.0000    0.23720   0.78540   0.09217   Biso      1.000     O          -0.607397 