
##########################################################################
#               Crystallographic Information Format file
#               Produced by PyCifRW module
#
#  This is a CIF file.  CIF has been adopted by the International
#  Union of Crystallography as the standard for data archiving and
#  transmission.
#
#  For information on this file format, follow the CIF links at
#  http://www.iucr.org
##########################################################################

data_image0

_cell_length_a                          12.2813
_cell_length_b                          27.3205
_cell_length_c                          16.465
_cell_angle_alpha                       90
_cell_angle_beta                        102.863
_cell_angle_gamma                       90
_symmetry_space_group_name_H-M          'P 1'
_symmetry_int_tables_number             1
loop_
  _symmetry_equiv_pos_as_xyz
         'x, y, z' 
loop_
  _atom_site_label
  _atom_site_occupancy
  _atom_site_fract_x
  _atom_site_fract_y
  _atom_site_fract_z
  _atom_site_thermal_displace_type
  _atom_site_B_iso_or_equiv
  _atom_site_type_symbol
  _atom_site_charge
         C1        1.0000    0.26160   0.98147   0.75520   Biso      1.000     C          -0.043001           
         C2        1.0000    0.51670   0.14285   0.85530   Biso      1.000     C          0.344042  
         C3        1.0000    0.23050   0.98954   0.66270   Biso      1.000     C          0.602817  
         C4        1.0000    0.22590   0.27530   0.95730   Biso      1.000     C          -0.091049           
         C5        1.0000    0.26800   0.27130   0.47800   Biso      1.000     C          -0.210342           
         C6        1.0000    0.26800   0.22870   0.97800   Biso      1.000     C          -0.210954           
         C7        1.0000    0.37770   0.22360   0.02210   Biso      1.000     C          0.273171  
         C8        1.0000    0.44340   0.26330   0.04710   Biso      1.000     C          -0.206612           
         C9        1.0000    0.22590   0.22470   0.45730   Biso      1.000     C          -0.091407           
         C10       1.0000    0.40020   0.30990   0.02870   Biso      1.000     C          -0.076234           
         C11       1.0000    0.29130   0.31572   0.98350   Biso      1.000     C          -0.026753           
         C12       1.0000    0.24270   0.36620   0.96350   Biso      1.000     C          0.562351  
         C13       1.0000    0.80140   0.05010   0.20800   Biso      1.000     C          -0.082336           
         C14       1.0000    0.51670   0.35715   0.35530   Biso      1.000     C          0.343941  
         C15       1.0000    0.77260   0.05880   0.12280   Biso      1.000     C          -0.209561           
         C16       1.0000    0.68070   0.03660   0.07610   Biso      1.000     C          0.273694  
         C17       1.0000    0.57930   0.39817   0.38360   Biso      1.000     C          -0.385054           
         C18       1.0000    0.61670   0.00500   0.11030   Biso      1.000     C          -0.207289           
         C19       1.0000    0.64530   0.99550   0.19510   Biso      1.000     C          -0.077638           
         C20       1.0000    0.73840   0.01853   0.24480   Biso      1.000     C          -0.043001           
         C21       1.0000    0.76950   0.01046   0.33730   Biso      1.000     C          0.602817  
         C22       1.0000    0.58780   0.41238   0.46600   Biso      1.000     C          0.324119  
         C23       1.0000    0.71590   0.12490   0.66210   Biso      1.000     C          -0.085224           
         C24       1.0000    0.53500   0.38703   0.51890   Biso      1.000     C          -0.349405           
         C25       1.0000    0.66180   0.15040   0.71440   Biso      1.000     C          -0.217623           
         C26       1.0000    0.50530   0.09529   0.67830   Biso      1.000     C          -0.201013           
         C27       1.0000    0.57930   0.10183   0.88360   Biso      1.000     C          -0.38346  
         C28       1.0000    0.37770   0.27640   0.52210   Biso      1.000     C          0.273745  
         C29       1.0000    0.58780   0.08762   0.96600   Biso      1.000     C          0.323233  
         C30       1.0000    0.53500   0.11297   0.01890   Biso      1.000     C          -0.349336           
         C31       1.0000    0.64530   0.50450   0.69510   Biso      1.000     C          -0.077764           
         C32       1.0000    0.73840   0.48147   0.74480   Biso      1.000     C          -0.042573           
         C33       1.0000    0.76950   0.48954   0.83730   Biso      1.000     C          0.602679  
         C34       1.0000    0.68070   0.46340   0.57610   Biso      1.000     C          0.273207  
         C35       1.0000    0.71590   0.37510   0.16210   Biso      1.000     C          -0.084952           
         C36       1.0000    0.77260   0.44120   0.62280   Biso      1.000     C          -0.209678           
         C37       1.0000    0.66180   0.34960   0.21440   Biso      1.000     C          -0.21782  
         C38       1.0000    0.55810   0.36516   0.22240   Biso      1.000     C          0.266018  
         C39       1.0000    0.50530   0.40471   0.17830   Biso      1.000     C          -0.200795           
         C40       1.0000    0.80140   0.44990   0.70800   Biso      1.000     C          -0.082231           
         C41       1.0000    0.56000   0.43016   0.12630   Biso      1.000     C          -0.06288  
         C42       1.0000    0.66590   0.41606   0.11900   Biso      1.000     C          -0.046644           
         C43       1.0000    0.47240   0.34604   0.48710   Biso      1.000     C          0.331279  
         C44       1.0000    0.72720   0.44463   0.06520   Biso      1.000     C          0.627595  
         C45       1.0000    0.24270   0.13380   0.46350   Biso      1.000     C          0.563158  
         C46       1.0000    0.62230   0.77640   0.97790   Biso      1.000     C          0.273168  
         C47       1.0000    0.73200   0.77130   0.02200   Biso      1.000     C          -0.210955           
         C48       1.0000    0.29130   0.18428   0.48350   Biso      1.000     C          -0.02624  
         C49       1.0000    0.77410   0.72470   0.04270   Biso      1.000     C          -0.091049           
         C50       1.0000    0.40020   0.19010   0.52870   Biso      1.000     C          -0.075968           
         C51       1.0000    0.48330   0.85715   0.14470   Biso      1.000     C          0.344041  
         C52       1.0000    0.42070   0.89817   0.11640   Biso      1.000     C          -0.383458           
         C53       1.0000    0.41220   0.91238   0.03400   Biso      1.000     C          0.323234  
         C54       1.0000    0.44340   0.23670   0.54710   Biso      1.000     C          -0.206202           
         C55       1.0000    0.46300   0.16985   0.90650   Biso      1.000     C          -0.39025  
         C56       1.0000    0.47240   0.15396   0.98710   Biso      1.000     C          0.331933  
         C57       1.0000    0.55660   0.73670   0.95290   Biso      1.000     C          -0.206612           
         C58       1.0000    0.56000   0.06984   0.62630   Biso      1.000     C          -0.062897           
         C59       1.0000    0.55810   0.13484   0.72240   Biso      1.000     C          0.266175  
         C60       1.0000    0.72720   0.05537   0.56520   Biso      1.000     C          0.627703  
         C61       1.0000    0.62230   0.72360   0.47790   Biso      1.000     C          0.273743  
         C62       1.0000    0.27280   0.94463   0.43480   Biso      1.000     C          0.627703  
         C63       1.0000    0.66590   0.08394   0.61900   Biso      1.000     C          -0.046684           
         C64       1.0000    0.33410   0.91606   0.38100   Biso      1.000     C          -0.046684           
         C65       1.0000    0.59980   0.80990   0.47130   Biso      1.000     C          -0.075968           
         C66       1.0000    0.70870   0.81572   0.51650   Biso      1.000     C          -0.02624  
         C67       1.0000    0.75730   0.86620   0.53650   Biso      1.000     C          0.563157  
         C68       1.0000    0.44000   0.93016   0.37370   Biso      1.000     C          -0.062898           
         C69       1.0000    0.19860   0.55010   0.29200   Biso      1.000     C          -0.08223  
         C70       1.0000    0.22740   0.55880   0.37720   Biso      1.000     C          -0.209687           
         C71       1.0000    0.31930   0.53660   0.42390   Biso      1.000     C          0.273216  
         C72       1.0000    0.49470   0.90471   0.32170   Biso      1.000     C          -0.201011           
         C73       1.0000    0.73200   0.72870   0.52200   Biso      1.000     C          -0.210341           
         C74       1.0000    0.38330   0.50500   0.38970   Biso      1.000     C          -0.207531           
         C75       1.0000    0.26160   0.51853   0.25520   Biso      1.000     C          -0.042572           
         C76       1.0000    0.23050   0.51046   0.16270   Biso      1.000     C          0.602679  
         C77       1.0000    0.44190   0.86516   0.27760   Biso      1.000     C          0.266171  
         C78       1.0000    0.28410   0.62490   0.83790   Biso      1.000     C          -0.084952           
         C79       1.0000    0.33820   0.84960   0.28560   Biso      1.000     C          -0.217622           
         C80       1.0000    0.33820   0.65040   0.78560   Biso      1.000     C          -0.21782  
         C81       1.0000    0.44190   0.63484   0.77760   Biso      1.000     C          0.266019  
         C82       1.0000    0.49470   0.59529   0.82170   Biso      1.000     C          -0.200795           
         C83       1.0000    0.28410   0.87510   0.33790   Biso      1.000     C          -0.085222           
         C84       1.0000    0.44000   0.56984   0.87370   Biso      1.000     C          -0.062881           
         C85       1.0000    0.33410   0.58394   0.88100   Biso      1.000     C          -0.046644           
         C86       1.0000    0.27280   0.55537   0.93480   Biso      1.000     C          0.627595  
         C87       1.0000    0.35470   0.49550   0.30490   Biso      1.000     C          -0.077763           
         C88       1.0000    0.35470   0.00450   0.80490   Biso      1.000     C          -0.077638           
         C89       1.0000    0.55660   0.76330   0.45290   Biso      1.000     C          -0.206201           
         C90       1.0000    0.19860   0.94990   0.79200   Biso      1.000     C          -0.082335           
         C91       1.0000    0.46500   0.88703   0.98110   Biso      1.000     C          -0.349338           
         C92       1.0000    0.46300   0.33015   0.40650   Biso      1.000     C          -0.388282           
         C93       1.0000    0.52760   0.84604   0.01290   Biso      1.000     C          0.331932  
         C94       1.0000    0.53700   0.83015   0.09350   Biso      1.000     C          -0.39025  
         C95       1.0000    0.59980   0.69010   0.97130   Biso      1.000     C          -0.076236           
         C96       1.0000    0.70870   0.68428   0.01650   Biso      1.000     C          -0.026752           
         C97       1.0000    0.75730   0.63380   0.03650   Biso      1.000     C          0.562348  
         C98       1.0000    0.77410   0.77530   0.54270   Biso      1.000     C          -0.091405           
         C99       1.0000    0.22740   0.94120   0.87720   Biso      1.000     C          -0.209561           
         C100      1.0000    0.31930   0.96340   0.92390   Biso      1.000     C          0.273694  
         C101      1.0000    0.53700   0.66985   0.59350   Biso      1.000     C          -0.388284           
         C102      1.0000    0.61670   0.49500   0.61030   Biso      1.000     C          -0.20753  
         C103      1.0000    0.52760   0.65396   0.51290   Biso      1.000     C          0.331278  
         C104      1.0000    0.48330   0.64285   0.64470   Biso      1.000     C          0.343945  
         C105      1.0000    0.42070   0.60183   0.61640   Biso      1.000     C          -0.385052           
         C106      1.0000    0.46500   0.61297   0.48110   Biso      1.000     C          -0.349392           
         C107      1.0000    0.41220   0.58762   0.53400   Biso      1.000     C          0.324118  
         C108      1.0000    0.38330   0.99500   0.88970   Biso      1.000     C          -0.207289           
         H1        1.0000    0.15210   0.22070   0.42500   Biso      1.000     H          0.124167  
         H2        1.0000    0.21280   0.86450   0.34440   Biso      1.000     H          0.12073   
         H3        1.0000    0.54110   0.39720   0.57490   Biso      1.000     H          0.160966  
         H4        1.0000    0.55340   0.51040   0.57620   Biso      1.000     H          0.125775  
         H5        1.0000    0.22240   0.29930   0.46230   Biso      1.000     H          0.139159  
         H6        1.0000    0.30410   0.82190   0.25560   Biso      1.000     H          0.139912  
         H7        1.0000    0.81650   0.41990   0.59750   Biso      1.000     H          0.13997   
         H8        1.0000    0.51850   0.24080   0.57690   Biso      1.000     H          0.135336  
         H9        1.0000    0.47520   0.95750   0.40440   Biso      1.000     H          0.128911  
         H10       1.0000    0.61560   0.41620   0.34790   Biso      1.000     H          0.161458  
         H11       1.0000    0.86490   0.43420   0.74120   Biso      1.000     H          0.140344  
         H12       1.0000    0.13510   0.93420   0.75880   Biso      1.000     H          0.140132  
         H13       1.0000    0.44660   0.01040   0.92380   Biso      1.000     H          0.125884  
         H14       1.0000    0.56720   0.91430   0.31670   Biso      1.000     H          0.141162  
         H15       1.0000    0.18350   0.91990   0.90250   Biso      1.000     H          0.140073  
         H16       1.0000    0.44510   0.16220   0.54710   Biso      1.000     H          0.113681  
         H17       1.0000    0.42120   0.30170   0.38650   Biso      1.000     H          0.16116   
         H18       1.0000    0.39830   0.02650   0.78060   Biso      1.000     H          0.113463  
         H19       1.0000    0.15210   0.27930   0.92500   Biso      1.000     H          0.123973  
         H20       1.0000    0.78720   0.36450   0.15560   Biso      1.000     H          0.120703  
         H21       1.0000    0.45890   0.89720   0.92510   Biso      1.000     H          0.160822  
         H22       1.0000    0.60170   0.52650   0.71940   Biso      1.000     H          0.11346   
         H23       1.0000    0.57880   0.69830   0.61350   Biso      1.000     H          0.161159  
         H24       1.0000    0.45890   0.60280   0.42510   Biso      1.000     H          0.160962  
         H25       1.0000    0.38440   0.58380   0.65210   Biso      1.000     H          0.161457  
         H26       1.0000    0.84790   0.77930   0.57500   Biso      1.000     H          0.124168  
         H27       1.0000    0.77760   0.70070   0.53770   Biso      1.000     H          0.139159  
         H28       1.0000    0.48150   0.75920   0.42310   Biso      1.000     H          0.135336  
         H29       1.0000    0.55490   0.83780   0.45290   Biso      1.000     H          0.113681  
         H30       1.0000    0.13510   0.56580   0.25880   Biso      1.000     H          0.140345  
         H31       1.0000    0.18350   0.58010   0.40250   Biso      1.000     H          0.13997   
         H32       1.0000    0.44660   0.48960   0.42380   Biso      1.000     H          0.125776  
         H33       1.0000    0.39830   0.47350   0.28060   Biso      1.000     H          0.113461  
         H34       1.0000    0.21280   0.63550   0.84440   Biso      1.000     H          0.120704  
         H35       1.0000    0.30410   0.67810   0.75560   Biso      1.000     H          0.139685  
         H36       1.0000    0.56720   0.58570   0.81670   Biso      1.000     H          0.141143  
         H37       1.0000    0.47520   0.54250   0.90440   Biso      1.000     H          0.128961  
         H38       1.0000    0.52480   0.04250   0.59560   Biso      1.000     H          0.128911  
         H39       1.0000    0.43280   0.08570   0.68330   Biso      1.000     H          0.141162  
         H40       1.0000    0.57880   0.80170   0.11350   Biso      1.000     H          0.161468  
         H41       1.0000    0.78720   0.13550   0.65560   Biso      1.000     H          0.120729  
         H42       1.0000    0.69590   0.32190   0.24440   Biso      1.000     H          0.139686  
         H43       1.0000    0.43280   0.41430   0.18330   Biso      1.000     H          0.141143  
         H44       1.0000    0.52480   0.45750   0.09560   Biso      1.000     H          0.128961  
         H45       1.0000    0.55490   0.66220   0.95290   Biso      1.000     H          0.113551  
         H46       1.0000    0.48150   0.74080   0.92310   Biso      1.000     H          0.135028  
         H47       1.0000    0.77760   0.79930   0.03770   Biso      1.000     H          0.138825  
         H48       1.0000    0.84790   0.72070   0.07500   Biso      1.000     H          0.123973  
         H49       1.0000    0.38440   0.91620   0.15210   Biso      1.000     H          0.161242  
         H50       1.0000    0.42120   0.19830   0.88650   Biso      1.000     H          0.161468  
         H51       1.0000    0.54110   0.10280   0.07490   Biso      1.000     H          0.160822  
         H52       1.0000    0.61560   0.08380   0.84790   Biso      1.000     H          0.161241  
         H53       1.0000    0.69590   0.17810   0.74440   Biso      1.000     H          0.13991   
         H54       1.0000    0.22240   0.20070   0.96230   Biso      1.000     H          0.138827  
         H55       1.0000    0.44510   0.33780   0.04710   Biso      1.000     H          0.113551  
         H56       1.0000    0.86490   0.06580   0.24120   Biso      1.000     H          0.140131  
         H57       1.0000    0.81650   0.08010   0.09750   Biso      1.000     H          0.140074  
         H58       1.0000    0.55340   0.98960   0.07620   Biso      1.000     H          0.125885  
         H59       1.0000    0.60170   0.97350   0.21940   Biso      1.000     H          0.113463  
         H60       1.0000    0.51850   0.25920   0.07690   Biso      1.000     H          0.135028  
         O1        1.0000    0.84540   0.62956   0.08970   Biso      1.000     O          -0.466447           
         O2        1.0000    0.34910   0.95385   0.01010   Biso      1.000     O          -0.234574           
         O3        1.0000    0.28420   0.02206   0.63340   Biso      1.000     O          -0.541029           
         O4        1.0000    0.15490   0.96347   0.62190   Biso      1.000     O          -0.564193           
         O5        1.0000    0.49610   0.83930   0.22460   Biso      1.000     O          -0.210816           
         O6        1.0000    0.31270   0.98582   0.45960   Biso      1.000     O          -0.523886           
         O7        1.0000    0.18700   0.92515   0.45020   Biso      1.000     O          -0.573708           
         O8        1.0000    0.70290   0.59893   0.99510   Biso      1.000     O          -0.52551  
         O9        1.0000    0.92270   0.97940   0.53935   Biso      1.000     O          -0.760487           
         O10       1.0000    0.07730   0.02060   0.46065   Biso      1.000     O          -0.760485           
         O11       1.0000    0.71580   0.97794   0.36660   Biso      1.000     O          -0.54103  
         O12       1.0000    0.84540   0.87044   0.58970   Biso      1.000     O          -0.4601   
         O13       1.0000    0.70290   0.90107   0.49510   Biso      1.000     O          -0.528758           
         O14       1.0000    0.57960   0.67666   0.45700   Biso      1.000     O          -0.226934           
         O15       1.0000    0.07730   0.47940   0.96065   Biso      1.000     O          -0.758977           
         O16       1.0000    0.15490   0.53653   0.12190   Biso      1.000     O          -0.56517  
         O17       1.0000    0.49610   0.66070   0.72460   Biso      1.000     O          -0.210923           
         O18       1.0000    0.81300   0.07485   0.54980   Biso      1.000     O          -0.573708           
         O19       1.0000    0.68730   0.01418   0.54040   Biso      1.000     O          -0.523886           
         O20       1.0000    0.50390   0.16070   0.77540   Biso      1.000     O          -0.210817           
         O21       1.0000    0.84510   0.03653   0.37810   Biso      1.000     O          -0.564193           
         O22       1.0000    0.31270   0.51418   0.95960   Biso      1.000     O          -0.523862           
         O23       1.0000    0.65090   0.04615   0.98990   Biso      1.000     O          -0.234573           
         O24       1.0000    0.15460   0.37044   0.91030   Biso      1.000     O          -0.466449           
         O25       1.0000    0.34910   0.54615   0.51010   Biso      1.000     O          -0.233532           
         O26       1.0000    0.29710   0.40107   0.00490   Biso      1.000     O          -0.525509           
         O27       1.0000    0.57960   0.82334   0.95700   Biso      1.000     O          -0.22614  
         O28       1.0000    0.18700   0.57485   0.95020   Biso      1.000     O          -0.574404           
         O29       1.0000    0.81300   0.42515   0.04980   Biso      1.000     O          -0.574404           
         O30       1.0000    0.68730   0.48582   0.04040   Biso      1.000     O          -0.523862           
         O31       1.0000    0.50390   0.33930   0.27540   Biso      1.000     O          -0.210919           
         O32       1.0000    0.84510   0.46347   0.87810   Biso      1.000     O          -0.56517  
         O33       1.0000    0.71580   0.52206   0.86660   Biso      1.000     O          -0.541866           
         O34       1.0000    0.65090   0.45385   0.48990   Biso      1.000     O          -0.23353  
         O35       1.0000    0.15460   0.12956   0.41030   Biso      1.000     O          -0.460103           
         O36       1.0000    0.29710   0.09893   0.50490   Biso      1.000     O          -0.528758           
         O37       1.0000    0.42040   0.32334   0.54300   Biso      1.000     O          -0.226933           
         O38       1.0000    0.92270   0.52060   0.03935   Biso      1.000     O          -0.758974           
         O39       1.0000    0.42040   0.17666   0.04300   Biso      1.000     O          -0.226142           
         O40       1.0000    0.28420   0.47794   0.13340   Biso      1.000     O          -0.541866           
         Zn1       1.0000    0.23132   0.46497   0.01287   Biso      1.000     Zn          0.92813   
         Zn2       1.0000    0.05712   0.94857   0.50272   Biso      1.000     Zn          1.01502   
         Zn3       1.0000    0.76868   0.96497   0.48713   Biso      1.000     Zn          0.927214  
         Zn4       1.0000    0.23132   0.03503   0.51287   Biso      1.000     Zn          0.927214  
         Zn5       1.0000    0.94288   0.44857   0.99728   Biso      1.000     Zn          1.01262   
         Zn6       1.0000    0.76868   0.53503   0.98713   Biso      1.000     Zn          0.928129  
         Zn7       1.0000    0.94288   0.05143   0.49728   Biso      1.000     Zn          1.01502   
         Zn8       1.0000    0.05712   0.55143   0.00272   Biso      1.000     Zn          1.01262 