
##########################################################################
#               Crystallographic Information Format file
#               Produced by PyCifRW module
#
#  This is a CIF file.  CIF has been adopted by the International
#  Union of Crystallography as the standard for data archiving and
#  transmission.
#
#  For information on this file format, follow the CIF links at
#  http://www.iucr.org
##########################################################################

data_image0

_cell_length_a                          8.959
_cell_length_b                          10.0692
_cell_length_c                          10.1205
_cell_angle_alpha                       119.75
_cell_angle_beta                        116.182
_cell_angle_gamma                       90.1611
_symmetry_space_group_name_H-M          'P 1'
_symmetry_int_tables_number             1
loop_
  _symmetry_equiv_pos_as_xyz
         'x, y, z' 
loop_
  _atom_site_label
  _atom_site_occupancy
  _atom_site_fract_x
  _atom_site_fract_y
  _atom_site_fract_z
  _atom_site_thermal_displace_type
  _atom_site_B_iso_or_equiv
  _atom_site_type_symbol
  _atom_site_charge
         C1        1.0000    0.34140   0.19800   0.54460   Biso      1.000     C          0.55133   
         C2        1.0000    0.78300   0.75060   0.00060   Biso      1.000     C          0.560573  
         C3        1.0000    0.29680   0.65340   0.45540   Biso      1.000     C          0.5497310000000001  
         C4        1.0000    0.28240   0.75000   0.99940   Biso      1.000     C          0.560245  
         H1        1.0000    0.50040   0.10790   0.65760   Biso      1.000     H          0.360263  
         H2        1.0000    0.54670   0.28490   0.77480   Biso      1.000     H          0.345327  
         H3        1.0000    0.70580   0.87050   0.89740   Biso      1.000     H          0.354406  
         H4        1.0000    0.88780   0.94680   0.04920   Biso      1.000     H          0.340804  
         H5        1.0000    0.34280   0.45030   0.34240   Biso      1.000     H          0.359713  
         H6        1.0000    0.27190   0.51010   0.22520   Biso      1.000     H          0.345555  
         H7        1.0000    0.30840   0.97310   0.10260   Biso      1.000     H          0.352756  
         H8        1.0000    0.33860   0.89760   0.95080   Biso      1.000     H          0.341104  
         N1        1.0000    0.26090   0.78190   0.45180   Biso      1.000     N          -0.32743099999999997          
         N2        1.0000    0.29560   0.89330   0.61720   Biso      1.000     N          -0.069445           
         N3        1.0000    0.33810   0.83310   0.70840   Biso      1.000     N          -0.09131900000000001          
         N4        1.0000    0.34420   0.68170   0.61220   Biso      1.000     N          -0.339575           
         N5        1.0000    0.17840   0.27610   0.38280   Biso      1.000     N          -0.07077  
         N6        1.0000    0.29090   0.61720   0.87800   Biso      1.000     N          -0.354536           
         N7        1.0000    0.30480   0.52180   0.32500   Biso      1.000     N          -0.747062           
         N8        1.0000    0.24010   0.49720   0.89340   Biso      1.000     N          -0.078816           
         N9        1.0000    0.31340   0.89000   0.02000   Biso      1.000     N          -0.740438           
         N10       1.0000    0.64590   0.62520   0.90360   Biso      1.000     N          -0.359184           
         N11       1.0000    0.24230   0.72160   0.09640   Biso      1.000     N          -0.358987           
         N12       1.0000    0.84670   0.60380   0.10660   Biso      1.000     N          -0.079367           
         N13       1.0000    0.91290   0.73920   0.12200   Biso      1.000     N          -0.356304           
         N14       1.0000    0.79340   0.87000   0.98000   Biso      1.000     N          -0.742211           
         N15       1.0000    0.23200   0.06950   0.38780   Biso      1.000     N          -0.339    
         N16       1.0000    0.12970   0.12470   0.29160   Biso      1.000     N          -0.090436           
         N17       1.0000    0.21760   0.56210   0.02520   Biso      1.000     N          -0.06654700000000001          
         N18       1.0000    0.30910   0.33010   0.54820   Biso      1.000     N          -0.32804099999999997          
         N19       1.0000    0.47980   0.19680   0.67500   Biso      1.000     N          -0.748472           
         N20       1.0000    0.69240   0.53690   0.97480   Biso      1.000     N          -0.065228           
         Zn1       1.0000    0.39503   0.56168   0.72566   Biso      1.000     Zn          0.6652170000000001  
         Zn2       1.0000    0.16937   0.83602   0.27434   Biso      1.000     Zn          0.666144 