
##########################################################################
#               Crystallographic Information Format file
#               Produced by PyCifRW module
#
#  This is a CIF file.  CIF has been adopted by the International
#  Union of Crystallography as the standard for data archiving and
#  transmission.
#
#  For information on this file format, follow the CIF links at
#  http://www.iucr.org
##########################################################################

data_image0

_cell_length_a                          9.812
_cell_length_b                          25.793
_cell_length_c                          11.777
_cell_angle_alpha                       90
_cell_angle_beta                        104.68
_cell_angle_gamma                       90
_symmetry_space_group_name_H-M          'P 1'
_symmetry_int_tables_number             1
loop_
  _symmetry_equiv_pos_as_xyz
         'x, y, z' 
loop_
  _atom_site_label
  _atom_site_occupancy
  _atom_site_fract_x
  _atom_site_fract_y
  _atom_site_fract_z
  _atom_site_thermal_displace_type
  _atom_site_B_iso_or_equiv
  _atom_site_type_symbol
  _atom_site_charge
         C1        1.0000    0.84100   0.28890   0.23560   Biso      1.000     C          0.07900599999999999           
         C2        1.0000    0.18260   0.31860   0.15790   Biso      1.000     C          0.051273  
         C3        1.0000    0.34450   0.39010   0.28960   Biso      1.000     C          0.020142  
         C4        1.0000    0.53190   0.70200   0.18710   Biso      1.000     C          0.2315    
         C5        1.0000    0.30370   0.18480   0.94480   Biso      1.000     C          0.06329299999999999           
         C6        1.0000    0.56360   0.20650   0.92170   Biso      1.000     C          0.03166   
         C7        1.0000    0.31100   0.39290   0.06420   Biso      1.000     C          0.07249   
         C8        1.0000    0.20090   0.27690   0.84070   Biso      1.000     C          0.023673  
         C9        1.0000    0.70900   0.03230   0.65960   Biso      1.000     C          0.21837199999999998           
         C10       1.0000    0.53160   0.10420   0.51750   Biso      1.000     C          0.20568499999999998           
         C11       1.0000    0.68260   0.18140   0.65790   Biso      1.000     C          0.051274  
         C12       1.0000    0.84450   0.10990   0.78960   Biso      1.000     C          0.020146  
         C13       1.0000    0.03190   0.79800   0.68710   Biso      1.000     C          0.23149899999999998           
         C14       1.0000    0.03160   0.39580   0.01750   Biso      1.000     C          0.205682  
         C15       1.0000    0.80370   0.31520   0.44480   Biso      1.000     C          0.063296  
         C16       1.0000    0.81100   0.10710   0.56420   Biso      1.000     C          0.072488  
         C17       1.0000    0.70090   0.22310   0.34070   Biso      1.000     C          0.023677  
         C18       1.0000    0.34100   0.21110   0.73560   Biso      1.000     C          0.078996  
         C19       1.0000    0.79100   0.53230   0.84040   Biso      1.000     C          0.21837399999999998           
         C20       1.0000    0.96840   0.60420   0.98250   Biso      1.000     C          0.20568499999999998           
         C21       1.0000    0.81740   0.68140   0.84210   Biso      1.000     C          0.051272000000000005          
         C22       1.0000    0.65550   0.60990   0.71040   Biso      1.000     C          0.02014   
         C23       1.0000    0.46810   0.29800   0.81290   Biso      1.000     C          0.23149499999999998           
         C24       1.0000    0.69630   0.81520   0.05520   Biso      1.000     C          0.063296  
         C25       1.0000    0.43640   0.79350   0.07830   Biso      1.000     C          0.031664  
         C26       1.0000    0.68900   0.60710   0.93580   Biso      1.000     C          0.07249   
         C27       1.0000    0.79910   0.72310   0.15930   Biso      1.000     C          0.023675  
         C28       1.0000    0.06360   0.29350   0.42170   Biso      1.000     C          0.031663  
         C29       1.0000    0.20900   0.46770   0.15960   Biso      1.000     C          0.218375  
         C30       1.0000    0.15900   0.71110   0.76440   Biso      1.000     C          0.079003  
         C31       1.0000    0.46840   0.89580   0.48250   Biso      1.000     C          0.205683  
         C32       1.0000    0.15550   0.89010   0.21040   Biso      1.000     C          0.020143  
         C33       1.0000    0.93640   0.70650   0.57830   Biso      1.000     C          0.031661  
         C34       1.0000    0.18900   0.89290   0.43580   Biso      1.000     C          0.072487  
         C35       1.0000    0.19630   0.68480   0.55520   Biso      1.000     C          0.063297  
         C36       1.0000    0.29100   0.96770   0.34040   Biso      1.000     C          0.21837600000000001           
         C37       1.0000    0.96810   0.20200   0.31290   Biso      1.000     C          0.23149899999999998           
         C38       1.0000    0.29910   0.77690   0.65930   Biso      1.000     C          0.023673  
         C39       1.0000    0.31740   0.81860   0.34210   Biso      1.000     C          0.051274  
         C40       1.0000    0.65900   0.78890   0.26440   Biso      1.000     C          0.078996  
         Fe1       1.0000    0.32022   0.89422   0.33805   Biso      1.000     Fe          0.091004  
         Fe2       1.0000    0.38771   0.24474   0.88891   Biso      1.000     Fe          0.098213  
         Fe3       1.0000    0.67978   0.10578   0.66195   Biso      1.000     Fe          0.091     
         Fe4       1.0000    0.17978   0.39422   0.16195   Biso      1.000     Fe          0.091001  
         Fe5       1.0000    0.82022   0.60578   0.83805   Biso      1.000     Fe          0.091001  
         Fe6       1.0000    0.61229   0.75526   0.11109   Biso      1.000     Fe          0.098202  
         Fe7       1.0000    0.88771   0.25526   0.38891   Biso      1.000     Fe          0.098195  
         Fe8       1.0000    0.11229   0.74474   0.61109   Biso      1.000     Fe          0.098201  
         N1        1.0000    0.16580   0.31590   0.44830   Biso      1.000     N          -0.43289099999999997          
         N2        1.0000    0.75490   0.34910   0.48220   Biso      1.000     N          -0.46654399999999996          
         N3        1.0000    0.89260   0.10640   0.50890   Biso      1.000     N          -0.40668499999999996          
         N4        1.0000    0.02160   0.16920   0.27180   Biso      1.000     N          -0.6349859999999999           
         N5        1.0000    0.59190   0.20560   0.31450   Biso      1.000     N          -0.436404           
         N6        1.0000    0.93830   0.22860   0.52130   Biso      1.000     N          0.18629   
         N7        1.0000    0.60740   0.60640   0.99110   Biso      1.000     N          -0.406677           
         N8        1.0000    0.06170   0.77140   0.47870   Biso      1.000     N          0.18628699999999998           
         N9        1.0000    0.43380   0.89950   0.25470   Biso      1.000     N          0.177841  
         N10       1.0000    0.76770   0.48850   0.83760   Biso      1.000     N          -0.576619           
         N11       1.0000    0.06140   0.60400   0.06410   Biso      1.000     N          -0.549959           
         N12       1.0000    0.80850   0.72560   0.84000   Biso      1.000     N          -0.431414           
         N13       1.0000    0.55690   0.61320   0.63360   Biso      1.000     N          -0.39516  
         N14       1.0000    0.05690   0.88680   0.13360   Biso      1.000     N          -0.39516599999999996          
         N15       1.0000    0.30850   0.77440   0.34000   Biso      1.000     N          -0.43142299999999995          
         N16       1.0000    0.52160   0.33080   0.77180   Biso      1.000     N          -0.634979           
         N17       1.0000    0.56140   0.89600   0.56410   Biso      1.000     N          -0.549962           
         N18       1.0000    0.26770   0.01150   0.33760   Biso      1.000     N          -0.576627           
         N19       1.0000    0.56170   0.72860   0.97870   Biso      1.000     N          0.186284  
         N20       1.0000    0.31570   0.19120   0.64680   Biso      1.000     N          -0.45478900000000005          
         N21       1.0000    0.93380   0.60050   0.75470   Biso      1.000     N          0.177842  
         N22       1.0000    0.33420   0.81590   0.05170   Biso      1.000     N          -0.43288699999999997          
         N23       1.0000    0.81570   0.30880   0.14680   Biso      1.000     N          -0.454788           
         N24       1.0000    0.68430   0.80880   0.35320   Biso      1.000     N          -0.454793           
         N25       1.0000    0.47840   0.66920   0.22820   Biso      1.000     N          -0.634991           
         N26       1.0000    0.40810   0.79440   0.68550   Biso      1.000     N          -0.43640500000000004          
         N27       1.0000    0.90810   0.70560   0.18550   Biso      1.000     N          -0.436408           
         N28       1.0000    0.93860   0.39600   0.93590   Biso      1.000     N          -0.5499569999999999           
         N29       1.0000    0.43830   0.27140   0.02130   Biso      1.000     N          0.186283  
         N30       1.0000    0.25490   0.15090   0.98220   Biso      1.000     N          -0.46653100000000003          
         N31       1.0000    0.66580   0.18410   0.94830   Biso      1.000     N          -0.432883           
         N32       1.0000    0.10740   0.89360   0.49110   Biso      1.000     N          -0.406683           
         N33       1.0000    0.97840   0.83080   0.72820   Biso      1.000     N          -0.634987           
         N34       1.0000    0.39260   0.39360   0.00890   Biso      1.000     N          -0.406677           
         N35       1.0000    0.09190   0.29440   0.81450   Biso      1.000     N          -0.4364   
         N36       1.0000    0.19150   0.27440   0.16000   Biso      1.000     N          -0.43141899999999994          
         N37       1.0000    0.18430   0.69120   0.85320   Biso      1.000     N          -0.454796           
         N38       1.0000    0.23230   0.51150   0.16240   Biso      1.000     N          -0.576621           
         N39       1.0000    0.56620   0.10050   0.74530   Biso      1.000     N          0.177841  
         N40       1.0000    0.73230   0.98850   0.66240   Biso      1.000     N          -0.5766220000000001           
         N41       1.0000    0.43860   0.10400   0.43590   Biso      1.000     N          -0.549962           
         N42       1.0000    0.69150   0.22560   0.66000   Biso      1.000     N          -0.431428           
         N43       1.0000    0.94310   0.11320   0.86640   Biso      1.000     N          -0.39516999999999997          
         N44       1.0000    0.83420   0.68410   0.55170   Biso      1.000     N          -0.43289399999999995          
         N45       1.0000    0.24510   0.65090   0.51780   Biso      1.000     N          -0.46655  
         N46       1.0000    0.06620   0.39950   0.24530   Biso      1.000     N          0.177842  
         N47       1.0000    0.74510   0.84910   0.01780   Biso      1.000     N          -0.466541           
         N48       1.0000    0.44310   0.38680   0.36640   Biso      1.000     N          -0.39515900000000004          
         O1        1.0000    0.51780   0.71310   0.88770   Biso      1.000     O          0.14038399999999998           
         O2        1.0000    0.01780   0.78690   0.38770   Biso      1.000     O          0.14038499999999998           
         O3        1.0000    0.00970   0.59480   0.69880   Biso      1.000     O          0.12928699999999999           
         O4        1.0000    0.50970   0.90520   0.19880   Biso      1.000     O          0.12928199999999998           
         O5        1.0000    0.49030   0.09480   0.80120   Biso      1.000     O          0.129281  
         O6        1.0000    0.98220   0.21310   0.61230   Biso      1.000     O          0.14038699999999998           
         O7        1.0000    0.48220   0.28690   0.11230   Biso      1.000     O          0.14038499999999998           
         O8        1.0000    0.99030   0.40520   0.30120   Biso      1.000     O          0.12928499999999998           
         Rb1       1.0000    0.45550   0.27722   0.48519   Biso      1.000     Rb          0.881547  
         Rb2       1.0000    0.54450   0.72278   0.51481   Biso      1.000     Rb          0.8815459999999999  
         Rb3       1.0000    0.95550   0.22278   0.98519   Biso      1.000     Rb          0.8815559999999999  
         Rb4       1.0000    0.04450   0.77722   0.01481   Biso      1.000     Rb          0.8815540000000001  
         Y1        1.0000    0.70567   0.39845   0.79793   Biso      1.000     Y          2.083806  
         Y2        1.0000    0.79433   0.89845   0.70207   Biso      1.000     Y          2.0838099999999997  
         Y3        1.0000    0.29433   0.60155   0.20207   Biso      1.000     Y          2.0838259999999997  
         Y4        1.0000    0.20567   0.10155   0.29793   Biso      1.000     Y          2.0838200000000002 