
##########################################################################
#               Crystallographic Information Format file
#               Produced by PyCifRW module
#
#  This is a CIF file.  CIF has been adopted by the International
#  Union of Crystallography as the standard for data archiving and
#  transmission.
#
#  For information on this file format, follow the CIF links at
#  http://www.iucr.org
##########################################################################

data_image0

_cell_length_a                          9.784
_cell_length_b                          10.5934
_cell_length_c                          13.9456
_cell_angle_alpha                       95.606
_cell_angle_beta                        105.399
_cell_angle_gamma                       100.402
_symmetry_space_group_name_H-M          'P 1'
_symmetry_int_tables_number             1
loop_
  _symmetry_equiv_pos_as_xyz
         'x, y, z' 
loop_
  _atom_site_label
  _atom_site_occupancy
  _atom_site_fract_x
  _atom_site_fract_y
  _atom_site_fract_z
  _atom_site_thermal_displace_type
  _atom_site_B_iso_or_equiv
  _atom_site_type_symbol
  _atom_site_charge
         C1        1.0000    0.89160   0.84900   0.84630   Biso      1.000     C          0.661985  
         C2        1.0000    0.59220   0.33630   0.96650   Biso      1.000     C          0.07178999999999999           
         C3        1.0000    0.59540   0.22390   0.02010   Biso      1.000     C          0.631984  
         C4        1.0000    0.78820   0.61370   0.51200   Biso      1.000     C          0.58991   
         C5        1.0000    0.74310   0.67530   0.59540   Biso      1.000     C          0.08795499999999999           
         C6        1.0000    0.61390   0.67160   0.61380   Biso      1.000     C          -0.157004           
         C7        1.0000    0.64560   0.73940   0.71350   Biso      1.000     C          -0.15722  
         C8        1.0000    0.79140   0.77910   0.74890   Biso      1.000     C          0.080739  
         C9        1.0000    0.20860   0.22090   0.25110   Biso      1.000     C          0.080714  
         C10       1.0000    0.27520   0.90490   0.15800   Biso      1.000     C          0.5377529999999999  
         C11       1.0000    0.31020   0.87040   0.26100   Biso      1.000     C          0.113472  
         C12       1.0000    0.42970   0.90990   0.33890   Biso      1.000     C          -0.194846           
         C13       1.0000    0.69520   0.44400   0.97010   Biso      1.000     C          -0.15446500000000002          
         C14       1.0000    0.40190   0.84570   0.41940   Biso      1.000     C          -0.179566           
         C15       1.0000    0.17670   0.67950   0.42670   Biso      1.000     C          0.634939  
         C16       1.0000    0.64160   0.51050   0.20280   Biso      1.000     C          0.545896  
         C17       1.0000    0.51550   0.54040   0.13130   Biso      1.000     C          0.11171700000000001           
         C18       1.0000    0.37560   0.47700   0.09290   Biso      1.000     C          -0.171122           
         C19       1.0000    0.30480   0.55600   0.02990   Biso      1.000     C          -0.154476           
         C20       1.0000    0.40780   0.66370   0.03350   Biso      1.000     C          0.071797  
         C21       1.0000    0.40460   0.77610   0.97990   Biso      1.000     C          0.631983  
         C22       1.0000    0.21180   0.38630   0.48800   Biso      1.000     C          0.58991   
         C23       1.0000    0.25690   0.32470   0.40460   Biso      1.000     C          0.08795499999999999           
         C24       1.0000    0.38610   0.32840   0.38620   Biso      1.000     C          -0.15700799999999998          
         C25       1.0000    0.35440   0.26060   0.28650   Biso      1.000     C          -0.157193           
         C26       1.0000    0.26670   0.77260   0.38320   Biso      1.000     C          0.072854  
         C27       1.0000    0.62440   0.52300   0.90710   Biso      1.000     C          -0.171145           
         C28       1.0000    0.10840   0.15100   0.15370   Biso      1.000     C          0.661988  
         C29       1.0000    0.48450   0.45960   0.86870   Biso      1.000     C          0.11173599999999999           
         C30       1.0000    0.35840   0.48950   0.79720   Biso      1.000     C          0.545894  
         C31       1.0000    0.82330   0.32050   0.57330   Biso      1.000     C          0.634941  
         C32       1.0000    0.73330   0.22740   0.61680   Biso      1.000     C          0.072828  
         C33       1.0000    0.59810   0.15430   0.58060   Biso      1.000     C          -0.179535           
         C34       1.0000    0.57030   0.09010   0.66110   Biso      1.000     C          -0.194876           
         C35       1.0000    0.68980   0.12960   0.73900   Biso      1.000     C          0.113496  
         C36       1.0000    0.72480   0.09510   0.84200   Biso      1.000     C          0.537751  
         H1        1.0000    0.46460   0.85310   0.48380   Biso      1.000     H          0.14490899999999998           
         H2        1.0000    0.33390   0.39670   0.10560   Biso      1.000     H          0.148015  
         H3        1.0000    0.20730   0.53840   0.99320   Biso      1.000     H          0.15900899999999998           
         H4        1.0000    0.47730   0.36710   0.42970   Biso      1.000     H          0.15670599999999998           
         H5        1.0000    0.42150   0.24650   0.25240   Biso      1.000     H          0.159282  
         H6        1.0000    0.66610   0.60330   0.89440   Biso      1.000     H          0.148017  
         H7        1.0000    0.52270   0.63290   0.57030   Biso      1.000     H          0.15670599999999998           
         H8        1.0000    0.48570   0.03240   0.65950   Biso      1.000     H          0.153152  
         H9        1.0000    0.53540   0.14690   0.51620   Biso      1.000     H          0.14490699999999998           
         H10       1.0000    0.79270   0.46160   0.00680   Biso      1.000     H          0.15900699999999998           
         H11       1.0000    0.51430   0.96760   0.34050   Biso      1.000     H          0.15315   
         H12       1.0000    0.57850   0.75350   0.74760   Biso      1.000     H          0.15928399999999998           
         Nd1       1.0000    0.13877   0.55399   0.63880   Biso      1.000     Nd          2.084132  
         Nd2       1.0000    0.24259   0.01418   0.96855   Biso      1.000     Nd          2.144644  
         Nd3       1.0000    0.75741   0.98582   0.03145   Biso      1.000     Nd          2.144644  
         Nd4       1.0000    0.86123   0.44601   0.36120   Biso      1.000     Nd          2.084132  
         O1        1.0000    0.53810   0.65610   0.09600   Biso      1.000     O          -0.127624           
         O2        1.0000    0.37800   0.97090   0.13290   Biso      1.000     O          -0.643212           
         O3        1.0000    0.62200   0.02910   0.86710   Biso      1.000     O          -0.643211           
         O4        1.0000    0.85300   0.12830   0.90090   Biso      1.000     O          -0.615359           
         O5        1.0000    0.79330   0.21260   0.71450   Biso      1.000     O          -0.087381           
         O6        1.0000    0.94270   0.38410   0.63270   Biso      1.000     O          -0.660803           
         O7        1.0000    0.77130   0.32880   0.48250   Biso      1.000     O          -0.659165           
         O8        1.0000    0.14700   0.87170   0.09910   Biso      1.000     O          -0.615359           
         O9        1.0000    0.24240   0.40290   0.76230   Biso      1.000     O          -0.616082           
         O10       1.0000    0.20670   0.78740   0.28550   Biso      1.000     O          -0.087381           
         O11       1.0000    0.37090   0.60250   0.77440   Biso      1.000     O          -0.641447           
         O12       1.0000    0.46190   0.34390   0.90400   Biso      1.000     O          -0.127625           
         O13       1.0000    0.47760   0.15000   0.01600   Biso      1.000     O          -0.719356           
         O14       1.0000    0.71930   0.20580   0.06540   Biso      1.000     O          -0.670423           
         O15       1.0000    0.92080   0.60480   0.52810   Biso      1.000     O          -0.764613           
         O16       1.0000    0.05730   0.61590   0.36730   Biso      1.000     O          -0.660803           
         O17       1.0000    0.69450   0.56820   0.43020   Biso      1.000     O          -0.549211           
         O18       1.0000    0.22870   0.67120   0.51750   Biso      1.000     O          -0.6591640000000001           
         O19       1.0000    0.85510   0.74130   0.67700   Biso      1.000     O          -0.148818           
         O20       1.0000    0.83880   0.85760   0.91960   Biso      1.000     O          -0.6907260000000001           
         O21       1.0000    0.02130   0.89100   0.85020   Biso      1.000     O          -0.682396           
         O22       1.0000    0.97870   0.10900   0.14980   Biso      1.000     O          -0.682396           
         O23       1.0000    0.16120   0.14240   0.08040   Biso      1.000     O          -0.6907270000000001           
         O24       1.0000    0.14490   0.25870   0.32300   Biso      1.000     O          -0.148816           
         O25       1.0000    0.75760   0.59710   0.23770   Biso      1.000     O          -0.616082           
         O26       1.0000    0.07920   0.39520   0.47190   Biso      1.000     O          -0.764614           
         O27       1.0000    0.28070   0.79420   0.93460   Biso      1.000     O          -0.670423           
         O28       1.0000    0.52240   0.85000   0.98400   Biso      1.000     O          -0.719356           
         O29       1.0000    0.62910   0.39750   0.22560   Biso      1.000     O          -0.6414479999999999           
         O30       1.0000    0.30550   0.43180   0.56980   Biso      1.000     O          -0.549211 