
##########################################################################
#               Crystallographic Information Format file
#               Produced by PyCifRW module
#
#  This is a CIF file.  CIF has been adopted by the International
#  Union of Crystallography as the standard for data archiving and
#  transmission.
#
#  For information on this file format, follow the CIF links at
#  http://www.iucr.org
##########################################################################

data_image0

_cell_length_a                          6.4021
_cell_length_b                          14.9295
_cell_length_c                          15.8901
_cell_angle_alpha                       90
_cell_angle_beta                        90
_cell_angle_gamma                       90
_symmetry_space_group_name_H-M          'P 1'
_symmetry_int_tables_number             1
loop_
  _symmetry_equiv_pos_as_xyz
         'x, y, z' 
loop_
  _atom_site_label
  _atom_site_occupancy
  _atom_site_fract_x
  _atom_site_fract_y
  _atom_site_fract_z
  _atom_site_thermal_displace_type
  _atom_site_B_iso_or_equiv
  _atom_site_type_symbol
  _atom_site_charge
         C1        1.0000    0.26150   0.06703   0.16400   Biso      1.000     C          0.558276  
         C2        1.0000    0.22090   0.27300   0.45337   Biso      1.000     C          -0.139928           
         C3        1.0000    0.22140   0.19840   0.50557   Biso      1.000     C          0.060397  
         C4        1.0000    0.22510   0.20452   0.59276   Biso      1.000     C          -0.125862           
         C5        1.0000    0.22860   0.28884   0.62883   Biso      1.000     C          -0.003826           
         C6        1.0000    0.22760   0.36510   0.57768   Biso      1.000     C          -0.10654100000000001          
         C7        1.0000    0.22380   0.35729   0.49043   Biso      1.000     C          -0.016447999999999997         
         C8        1.0000    0.22490   0.43905   0.43506   Biso      1.000     C          0.5598810000000001  
         C9        1.0000    0.73850   0.56703   0.33600   Biso      1.000     C          0.558184  
         C10       1.0000    0.27510   0.56095   0.93506   Biso      1.000     C          0.559905  
         C11       1.0000    0.27910   0.72700   0.95337   Biso      1.000     C          -0.139942           
         C12       1.0000    0.27860   0.80160   0.00557   Biso      1.000     C          0.06039   
         C13       1.0000    0.27490   0.79548   0.09276   Biso      1.000     C          -0.125885           
         C14       1.0000    0.76150   0.43297   0.83600   Biso      1.000     C          0.558292  
         C15       1.0000    0.27620   0.64271   0.99043   Biso      1.000     C          -0.016564           
         C16       1.0000    0.26390   0.70036   0.22407   Biso      1.000     C          0.578445  
         C17       1.0000    0.23610   0.29964   0.72407   Biso      1.000     C          0.578491  
         C18       1.0000    0.23850   0.93297   0.66400   Biso      1.000     C          0.558186  
         C19       1.0000    0.72380   0.14271   0.50957   Biso      1.000     C          -0.01655  
         C20       1.0000    0.76390   0.79964   0.77593   Biso      1.000     C          0.5784560000000001  
         C21       1.0000    0.77510   0.93905   0.06494   Biso      1.000     C          0.559872  
         C22       1.0000    0.77910   0.77300   0.04663   Biso      1.000     C          -0.13989300000000002          
         C23       1.0000    0.77860   0.69840   0.99443   Biso      1.000     C          0.060444000000000005          
         C24       1.0000    0.77490   0.70452   0.90724   Biso      1.000     C          -0.12576199999999998          
         C25       1.0000    0.77140   0.78884   0.87117   Biso      1.000     C          -0.00374  
         C26       1.0000    0.77240   0.86510   0.92232   Biso      1.000     C          -0.106501           
         C27       1.0000    0.77620   0.85729   0.00957   Biso      1.000     C          -0.01659  
         C28       1.0000    0.73610   0.20036   0.27593   Biso      1.000     C          0.578499  
         C29       1.0000    0.72490   0.06095   0.56494   Biso      1.000     C          0.55986   
         C30       1.0000    0.72090   0.22700   0.54663   Biso      1.000     C          -0.139907           
         C31       1.0000    0.72140   0.30160   0.49443   Biso      1.000     C          0.060458000000000005          
         C32       1.0000    0.72510   0.29548   0.40724   Biso      1.000     C          -0.12571  
         C33       1.0000    0.72860   0.21116   0.37117   Biso      1.000     C          -0.003783           
         C34       1.0000    0.72760   0.13490   0.42232   Biso      1.000     C          -0.10653599999999999          
         C35       1.0000    0.27240   0.63490   0.07768   Biso      1.000     C          -0.106521           
         C36       1.0000    0.27140   0.71116   0.12883   Biso      1.000     C          -0.0037380000000000004        
         Cu1       1.0000    0.26338   0.40878   0.86524   Biso      1.000     Cu          0.8588879999999999  
         Cu2       1.0000    0.51448   0.24375   0.99468   Biso      1.000     Cu          0.799932  
         Cu3       1.0000    0.23662   0.59122   0.36524   Biso      1.000     Cu          0.8587540000000001  
         Cu4       1.0000    0.98552   0.75625   0.49468   Biso      1.000     Cu          0.799604  
         Cu5       1.0000    0.73662   0.90878   0.63476   Biso      1.000     Cu          0.858922  
         Cu6       1.0000    0.48552   0.74375   0.50532   Biso      1.000     Cu          0.8041560000000001  
         Cu7       1.0000    0.76338   0.09122   0.13476   Biso      1.000     Cu          0.8591049999999999  
         Cu8       1.0000    0.01448   0.25625   0.00532   Biso      1.000     Cu          0.804516  
         H1        1.0000    0.77490   0.65220   0.87330   Biso      1.000     H          0.131629  
         H2        1.0000    0.24630   0.24780   0.89310   Biso      1.000     H          0.406112  
         H3        1.0000    0.78140   0.76660   0.10610   Biso      1.000     H          0.13922   
         H4        1.0000    0.88210   0.50240   0.75070   Biso      1.000     H          0.35012600000000005           
         H5        1.0000    0.27040   0.57720   0.10280   Biso      1.000     H          0.135598  
         H6        1.0000    0.27490   0.84780   0.12670   Biso      1.000     H          0.131597  
         H7        1.0000    0.28140   0.73340   0.89390   Biso      1.000     H          0.139201  
         H8        1.0000    0.25370   0.75220   0.39310   Biso      1.000     H          0.406046  
         H9        1.0000    0.65050   0.51740   0.74790   Biso      1.000     H          0.372947  
         H10       1.0000    0.61790   0.49760   0.25070   Biso      1.000     H          0.350008  
         H11       1.0000    0.77040   0.92280   0.89720   Biso      1.000     H          0.135594  
         H12       1.0000    0.84950   0.48260   0.24790   Biso      1.000     H          0.372821  
         H13       1.0000    0.15050   0.98260   0.25210   Biso      1.000     H          0.372948  
         H14       1.0000    0.74630   0.25220   0.10690   Biso      1.000     H          0.406119  
         H15       1.0000    0.71860   0.23340   0.60610   Biso      1.000     H          0.139178  
         H16       1.0000    0.72510   0.34780   0.37330   Biso      1.000     H          0.131657  
         H17       1.0000    0.72960   0.07720   0.39720   Biso      1.000     H          0.135602  
         H18       1.0000    0.38210   0.99760   0.24930   Biso      1.000     H          0.350075  
         H19       1.0000    0.34950   0.01740   0.75210   Biso      1.000     H          0.372848  
         H20       1.0000    0.75370   0.74780   0.60690   Biso      1.000     H          0.40605   
         H21       1.0000    0.21860   0.26660   0.39390   Biso      1.000     H          0.13916900000000001           
         H22       1.0000    0.22510   0.15220   0.62670   Biso      1.000     H          0.131617  
         H23       1.0000    0.22960   0.42280   0.60280   Biso      1.000     H          0.13559300000000002           
         H24       1.0000    0.11790   0.00240   0.74930   Biso      1.000     H          0.349979  
         N1        1.0000    0.77890   0.60925   0.03389   Biso      1.000     N          0.517632  
         N2        1.0000    0.33850   0.83522   0.57557   Biso      1.000     N          -0.04894  
         N3        1.0000    0.13730   0.83640   0.57478   Biso      1.000     N          -0.042939           
         N4        1.0000    0.06600   0.89681   0.62961   Biso      1.000     N          -0.29493  
         N5        1.0000    0.23910   0.00100   0.72060   Biso      1.000     N          -0.675172           
         N6        1.0000    0.36270   0.16360   0.07478   Biso      1.000     N          -0.043    
         N7        1.0000    0.08800   0.10458   0.13083   Biso      1.000     N          -0.282615           
         N8        1.0000    0.16150   0.16478   0.07557   Biso      1.000     N          -0.04887  
         N9        1.0000    0.43400   0.10319   0.12961   Biso      1.000     N          -0.29485  
         N10       1.0000    0.26090   0.99900   0.22060   Biso      1.000     N          -0.675092           
         N11       1.0000    0.72110   0.39075   0.53389   Biso      1.000     N          0.517629  
         N12       1.0000    0.41200   0.89542   0.63083   Biso      1.000     N          -0.282669           
         N13       1.0000    0.73910   0.49900   0.27940   Biso      1.000     N          -0.675157           
         N14       1.0000    0.56600   0.60319   0.37039   Biso      1.000     N          -0.29526399999999997          
         N15       1.0000    0.63730   0.66360   0.42522   Biso      1.000     N          -0.044021           
         N16       1.0000    0.83850   0.66478   0.42443   Biso      1.000     N          -0.047849           
         N17       1.0000    0.91200   0.60458   0.36917   Biso      1.000     N          -0.281998           
         N18       1.0000    0.27890   0.89075   0.96611   Biso      1.000     N          0.517629  
         N19       1.0000    0.76090   0.50100   0.77940   Biso      1.000     N          -0.675074           
         N20       1.0000    0.93400   0.39681   0.87039   Biso      1.000     N          -0.295189           
         N21       1.0000    0.86270   0.33640   0.92522   Biso      1.000     N          -0.043998           
         N22       1.0000    0.66150   0.33522   0.92443   Biso      1.000     N          -0.047814999999999996         
         N23       1.0000    0.58800   0.39542   0.86917   Biso      1.000     N          -0.281923           
         N24       1.0000    0.22110   0.10925   0.46611   Biso      1.000     N          0.517632  
         O1        1.0000    0.71830   0.06936   0.64261   Biso      1.000     O          -0.5373760000000001           
         O2        1.0000    0.75930   0.11946   0.25158   Biso      1.000     O          -0.549894           
         O3        1.0000    0.72050   0.26721   0.23048   Biso      1.000     O          -0.5428069999999999           
         O4        1.0000    0.72850   0.45671   0.48726   Biso      1.000     O          -0.33416799999999997          
         O5        1.0000    0.71360   0.39564   0.61086   Biso      1.000     O          -0.34429699999999996          
         O6        1.0000    0.77950   0.73279   0.73048   Biso      1.000     O          -0.54282  
         O7        1.0000    0.76970   0.01612   0.02999   Biso      1.000     O          -0.54259  
         O8        1.0000    0.78170   0.93064   0.14261   Biso      1.000     O          -0.5371229999999999           
         O9        1.0000    0.74070   0.88054   0.75158   Biso      1.000     O          -0.5499539999999999           
         O10       1.0000    0.73030   0.98388   0.52999   Biso      1.000     O          -0.542616           
         O11       1.0000    0.77150   0.54329   0.98726   Biso      1.000     O          -0.334384           
         O12       1.0000    0.73920   0.77680   0.56122   Biso      1.000     O          -0.882459           
         O13       1.0000    0.23920   0.72320   0.43878   Biso      1.000     O          -0.8825120000000001           
         O14       1.0000    0.21830   0.43064   0.35739   Biso      1.000     O          -0.53814  
         O15       1.0000    0.22850   0.04329   0.51274   Biso      1.000     O          -0.334264           
         O16       1.0000    0.22050   0.23279   0.76952   Biso      1.000     O          -0.542852           
         O17       1.0000    0.25930   0.38054   0.74842   Biso      1.000     O          -0.54997  
         O18       1.0000    0.23030   0.51612   0.47001   Biso      1.000     O          -0.542948           
         O19       1.0000    0.26080   0.27680   0.93878   Biso      1.000     O          -0.8824719999999999           
         O20       1.0000    0.28640   0.89564   0.88914   Biso      1.000     O          -0.34416399999999997          
         O21       1.0000    0.27150   0.95671   0.01274   Biso      1.000     O          -0.334441           
         O22       1.0000    0.27950   0.76721   0.26952   Biso      1.000     O          -0.542942           
         O23       1.0000    0.24070   0.61946   0.24842   Biso      1.000     O          -0.550225           
         O24       1.0000    0.28170   0.56936   0.85739   Biso      1.000     O          -0.537799           
         O25       1.0000    0.26970   0.48388   0.97001   Biso      1.000     O          -0.542646           
         O26       1.0000    0.78640   0.60436   0.11086   Biso      1.000     O          -0.344067           
         O27       1.0000    0.21360   0.10436   0.38914   Biso      1.000     O          -0.344294           
         O28       1.0000    0.76080   0.22320   0.06122   Biso      1.000     O          -0.882357 