
##########################################################################
#               Crystallographic Information Format file
#               Produced by PyCifRW module
#
#  This is a CIF file.  CIF has been adopted by the International
#  Union of Crystallography as the standard for data archiving and
#  transmission.
#
#  For information on this file format, follow the CIF links at
#  http://www.iucr.org
##########################################################################

data_image0

_cell_length_a                          8.666
_cell_length_b                          13.187
_cell_length_c                          14.0833
_cell_angle_alpha                       62.0839
_cell_angle_beta                        84.118
_cell_angle_gamma                       77.3561
_symmetry_space_group_name_H-M          'P 1'
_symmetry_int_tables_number             1
loop_
  _symmetry_equiv_pos_as_xyz
         'x, y, z' 
loop_
  _atom_site_label
  _atom_site_occupancy
  _atom_site_fract_x
  _atom_site_fract_y
  _atom_site_fract_z
  _atom_site_thermal_displace_type
  _atom_site_B_iso_or_equiv
  _atom_site_type_symbol
  _atom_site_charge
         C1        1.0000    0.07290   0.92000   0.34880   Biso      1.000     C          0.096652  
         C2        1.0000    0.66280   0.58360   0.48940   Biso      1.000     C          -0.107256           
         C3        1.0000    0.65660   0.67170   0.38580   Biso      1.000     C          -0.015883           
         C4        1.0000    0.50150   0.74660   0.33500   Biso      1.000     C          0.557472  
         C5        1.0000    0.65130   0.77110   0.03940   Biso      1.000     C          -0.188833           
         C6        1.0000    0.69010   0.88070   0.00220   Biso      1.000     C          0.093185  
         C7        1.0000    0.75570   0.87890   0.84100   Biso      1.000     C          0.084072  
         C8        1.0000    0.71280   0.77290   0.87180   Biso      1.000     C          -0.19113  
         C9        1.0000    0.65940   0.71690   0.97700   Biso      1.000     C          0.171887  
         C10       1.0000    0.60730   0.60380   0.01860   Biso      1.000     C          -0.167818           
         C11       1.0000    0.80750   0.51380   0.53460   Biso      1.000     C          -0.145162           
         C12       1.0000    0.58540   0.55180   0.96120   Biso      1.000     C          -0.112888           
         C13       1.0000    0.49470   0.37510   0.11080   Biso      1.000     C          -0.145533           
         C14       1.0000    0.52900   0.44150   0.00280   Biso      1.000     C          0.119914  
         C15       1.0000    0.51220   0.39900   0.93240   Biso      1.000     C          -0.141101           
         C16       1.0000    0.46030   0.29350   0.96860   Biso      1.000     C          -0.088972           
         C17       1.0000    0.42480   0.22980   0.07720   Biso      1.000     C          -0.023749           
         C18       1.0000    0.37320   0.11610   0.11860   Biso      1.000     C          0.549531  
         C19       1.0000    0.93070   0.93830   0.39540   Biso      1.000     C          -0.190587           
         C20       1.0000    0.95270   0.96060   0.19440   Biso      1.000     C          0.088599  
         C21       1.0000    0.79880   0.97840   0.23740   Biso      1.000     C          -0.188691           
         C22       1.0000    0.44470   0.27300   0.14820   Biso      1.000     C          -0.098631           
         C23       1.0000    0.94750   0.53860   0.47820   Biso      1.000     C          0.12707   
         C24       1.0000    0.93900   0.62870   0.37460   Biso      1.000     C          -0.148933           
         C25       1.0000    0.78980   0.69650   0.32820   Biso      1.000     C          -0.124114           
         C26       1.0000    0.15130   0.81050   0.96060   Biso      1.000     C          -0.188913           
         C27       1.0000    0.19010   0.88290   0.99780   Biso      1.000     C          0.095716  
         C28       1.0000    0.25570   0.71990   0.15900   Biso      1.000     C          0.081326  
         C29       1.0000    0.21280   0.64470   0.12820   Biso      1.000     C          -0.190883           
         C30       1.0000    0.15940   0.69390   0.02300   Biso      1.000     C          0.17115   
         C31       1.0000    0.10730   0.62240   0.98140   Biso      1.000     C          -0.168836           
         C32       1.0000    0.08540   0.51300   0.03880   Biso      1.000     C          -0.112007           
         C33       1.0000    0.94470   0.42120   0.85180   Biso      1.000     C          -0.101438           
         C34       1.0000    0.99470   0.48590   0.88920   Biso      1.000     C          -0.14292  
         C35       1.0000    0.02900   0.44430   0.99720   Biso      1.000     C          0.117641  
         C36       1.0000    0.01220   0.33140   0.06760   Biso      1.000     C          -0.138462           
         C37       1.0000    0.96030   0.26210   0.03140   Biso      1.000     C          -0.09157  
         C38       1.0000    0.92480   0.30700   0.92280   Biso      1.000     C          -0.023459           
         C39       1.0000    0.87320   0.23470   0.88140   Biso      1.000     C          0.551133  
         C40       1.0000    0.43070   0.33370   0.60460   Biso      1.000     C          -0.189282           
         C41       1.0000    0.57290   0.26880   0.65120   Biso      1.000     C          0.096122  
         C42       1.0000    0.45270   0.15500   0.80560   Biso      1.000     C          0.091166  
         C43       1.0000    0.29880   0.21580   0.76260   Biso      1.000     C          -0.18992  
         C44       1.0000    0.28810   0.30690   0.65920   Biso      1.000     C          0.172792  
         C45       1.0000    0.13180   0.37200   0.61320   Biso      1.000     C          -0.163013           
         C46       1.0000    0.10090   0.47240   0.52080   Biso      1.000     C          -0.114648           
         C47       1.0000    0.63180   0.98520   0.38680   Biso      1.000     C          -0.159938           
         C48       1.0000    0.60090   0.99320   0.47920   Biso      1.000     C          -0.117188           
         C49       1.0000    0.78810   0.96610   0.34080   Biso      1.000     C          0.172283  
         C50       1.0000    0.43900   0.00330   0.62540   Biso      1.000     C          -0.15045  
         C51       1.0000    0.00150   0.08160   0.66500   Biso      1.000     C          0.556969  
         C52       1.0000    0.15660   0.05750   0.61420   Biso      1.000     C          -0.016365           
         C53       1.0000    0.16280   0.07300   0.51060   Biso      1.000     C          -0.105103           
         C54       1.0000    0.28980   0.02470   0.67180   Biso      1.000     C          -0.12454  
         C55       1.0000    0.44750   0.01680   0.52180   Biso      1.000     C          0.12843   
         C56       1.0000    0.30750   0.04840   0.46540   Biso      1.000     C          -0.144582           
         H1        1.0000    0.31100   0.05320   0.39580   Biso      1.000     H          0.11933   
         H2        1.0000    0.67840   0.91820   0.04660   Biso      1.000     H          0.111198  
         H3        1.0000    0.79690   0.91660   0.77060   Biso      1.000     H          0.087733  
         H4        1.0000    0.71940   0.74000   0.82380   Biso      1.000     H          0.135504  
         H5        1.0000    0.58750   0.56460   0.09360   Biso      1.000     H          0.111982  
         H6        1.0000    0.60840   0.58940   0.88660   Biso      1.000     H          0.108923  
         H7        1.0000    0.42300   0.23050   0.22260   Biso      1.000     H          0.116992  
         H8        1.0000    0.50710   0.40290   0.16020   Biso      1.000     H          0.10797   
         H9        1.0000    0.53620   0.44190   0.85840   Biso      1.000     H          0.119326  
         H10       1.0000    0.92780   0.93220   0.46540   Biso      1.000     H          0.131213  
         H11       1.0000    0.16710   0.89710   0.38880   Biso      1.000     H          0.104062  
         H12       1.0000    0.61780   0.73250   0.11180   Biso      1.000     H          0.124533  
         H13       1.0000    0.70660   0.99790   0.19660   Biso      1.000     H          0.134737  
         H14       1.0000    0.54330   0.99260   0.34780   Biso      1.000     H          0.121067  
         H15       1.0000    0.68940   0.98210   0.52000   Biso      1.000     H          0.110236  
         H16       1.0000    0.28380   0.01610   0.74280   Biso      1.000     H          0.104282  
         H17       1.0000    0.53310   0.97950   0.66580   Biso      1.000     H          0.106879  
         H18       1.0000    0.06830   0.10040   0.47000   Biso      1.000     H          0.113105  
         H19       1.0000    0.44910   0.26530   0.91920   Biso      1.000     H          0.109236  
         H20       1.0000    0.96010   0.96880   0.12360   Biso      1.000     H          0.08397   
         H21       1.0000    0.56830   0.57040   0.53000   Biso      1.000     H          0.114138  
         H22       1.0000    0.03310   0.64530   0.33420   Biso      1.000     H          0.106623  
         H23       1.0000    0.11780   0.84430   0.88820   Biso      1.000     H          0.123849  
         H24       1.0000    0.17840   0.96480   0.95340   Biso      1.000     H          0.11008   
         H25       1.0000    0.29690   0.68720   0.22940   Biso      1.000     H          0.089073  
         H26       1.0000    0.21940   0.56380   0.17620   Biso      1.000     H          0.135909  
         H27       1.0000    0.81100   0.44900   0.60420   Biso      1.000     H          0.120377  
         H28       1.0000    0.10840   0.47600   0.11340   Biso      1.000     H          0.109297  
         H29       1.0000    0.92300   0.45310   0.77740   Biso      1.000     H          0.117834  
         H30       1.0000    0.00710   0.56310   0.83980   Biso      1.000     H          0.107193  
         H31       1.0000    0.08750   0.65820   0.90640   Biso      1.000     H          0.112786  
         H32       1.0000    0.94910   0.18450   0.08080   Biso      1.000     H          0.110087  
         H33       1.0000    0.42780   0.39760   0.53460   Biso      1.000     H          0.130824  
         H34       1.0000    0.66710   0.28590   0.61120   Biso      1.000     H          0.104769  
         H35       1.0000    0.46010   0.09240   0.87640   Biso      1.000     H          0.083638  
         H36       1.0000    0.20660   0.19450   0.80340   Biso      1.000     H          0.13511   
         H37       1.0000    0.04330   0.34040   0.65220   Biso      1.000     H          0.122157  
         H38       1.0000    0.18940   0.50210   0.48000   Biso      1.000     H          0.108849  
         H39       1.0000    0.78380   0.75890   0.25720   Biso      1.000     H          0.103896  
         H40       1.0000    0.03620   0.30030   0.14160   Biso      1.000     H          0.119784  
         N1        1.0000    0.24430   0.83290   0.09880   Biso      1.000     N          -0.234945           
         N2        1.0000    0.58360   0.17980   0.75400   Biso      1.000     N          -0.231095           
         N3        1.0000    0.08360   0.93380   0.24600   Biso      1.000     N          -0.22882  
         N4        1.0000    0.74430   0.93170   0.90120   Biso      1.000     N          -0.235588           
         O1        1.0000    0.50430   0.82720   0.23980   Biso      1.000     O          -0.550158           
         O2        1.0000    0.33430   0.06770   0.21660   Biso      1.000     O          -0.551312           
         O3        1.0000    0.37440   0.72130   0.38720   Biso      1.000     O          -0.59811  
         O4        1.0000    0.35500   0.07560   0.05520   Biso      1.000     O          -0.545174           
         O5        1.0000    0.83430   0.28430   0.78340   Biso      1.000     O          -0.552132           
         O6        1.0000    0.00430   0.06700   0.76020   Biso      1.000     O          -0.549688           
         O7        1.0000    0.85500   0.13080   0.94480   Biso      1.000     O          -0.545832           
         O8        1.0000    0.87440   0.10850   0.61280   Biso      1.000     O          -0.598286           
         Zn1       1.0000    0.29845   0.92409   0.17640   Biso      1.000     Zn          0.740921  
         Zn2       1.0000    0.79845   0.10049   0.82360   Biso      1.000     Zn          0.741359 