
##########################################################################
#               Crystallographic Information Format file
#               Produced by PyCifRW module
#
#  This is a CIF file.  CIF has been adopted by the International
#  Union of Crystallography as the standard for data archiving and
#  transmission.
#
#  For information on this file format, follow the CIF links at
#  http://www.iucr.org
##########################################################################

data_image0

_cell_length_a                          8.3985
_cell_length_b                          13.4836
_cell_length_c                          14.1863
_cell_angle_alpha                       61.6255
_cell_angle_beta                        85.794
_cell_angle_gamma                       81.122
_symmetry_space_group_name_H-M          'P 1'
_symmetry_int_tables_number             1
loop_
  _symmetry_equiv_pos_as_xyz
         'x, y, z' 
loop_
  _atom_site_label
  _atom_site_occupancy
  _atom_site_fract_x
  _atom_site_fract_y
  _atom_site_fract_z
  _atom_site_thermal_displace_type
  _atom_site_B_iso_or_equiv
  _atom_site_type_symbol
  _atom_site_charge
         C1        1.0000    0.80970   0.82820   0.00480   Biso      1.000     C          0.097898  
         C2        1.0000    0.55280   0.44350   0.97080   Biso      1.000     C          -0.08883  
         C3        1.0000    0.69000   0.00970   0.67200   Biso      1.000     C          -0.11748  
         C4        1.0000    0.05280   0.41430   0.02920   Biso      1.000     C          -0.089259           
         C5        1.0000    0.33400   0.64950   0.48160   Biso      1.000     C          -0.106847           
         C6        1.0000    0.38850   0.24240   0.48420   Biso      1.000     C          -0.124048           
         C7        1.0000    0.04780   0.70280   0.37440   Biso      1.000     C          -0.152654           
         C8        1.0000    0.19260   0.67270   0.52620   Biso      1.000     C          -0.14765  
         C9        1.0000    0.13330   0.59350   0.87760   Biso      1.000     C          0.553047  
         C10       1.0000    0.69900   0.72230   0.76080   Biso      1.000     C          -0.182534           
         C11       1.0000    0.42020   0.19150   0.96460   Biso      1.000     C          -0.106518           
         C12       1.0000    0.92020   0.15610   0.03540   Biso      1.000     C          -0.106967           
         C13       1.0000    0.78430   0.93500   0.12640   Biso      1.000     C          -0.197575           
         C14       1.0000    0.30970   0.83300   0.99520   Biso      1.000     C          0.099558  
         C15       1.0000    0.86810   0.72640   0.60900   Biso      1.000     C          -0.158398           
         C16       1.0000    0.88850   0.72660   0.51580   Biso      1.000     C          -0.123246           
         C17       1.0000    0.83670   0.03620   0.61920   Biso      1.000     C          -0.029963           
         C18       1.0000    0.40380   0.08270   0.01940   Biso      1.000     C          -0.166158           
         C19       1.0000    0.84840   0.99160   0.02200   Biso      1.000     C          0.171195  
         C20       1.0000    0.90380   0.10210   0.98060   Biso      1.000     C          -0.164622           
         C21       1.0000    0.47850   0.26220   0.00440   Biso      1.000     C          0.117131  
         C22       1.0000    0.28430   0.06140   0.87360   Biso      1.000     C          -0.197072           
         C23       1.0000    0.06100   0.43850   0.85000   Biso      1.000     C          -0.102387           
         C24       1.0000    0.49180   0.63120   0.33160   Biso      1.000     C          0.560829  
         C25       1.0000    0.19900   0.48310   0.23920   Biso      1.000     C          -0.181777           
         C26       1.0000    0.99770   0.30850   0.06520   Biso      1.000     C          -0.141982           
         C27       1.0000    0.54780   0.07720   0.62560   Biso      1.000     C          -0.151826           
         C28       1.0000    0.08170   0.47930   0.92040   Biso      1.000     C          -0.018328           
         C29       1.0000    0.56820   0.79350   0.59360   Biso      1.000     C          -0.194873           
         C30       1.0000    0.99180   0.96280   0.66840   Biso      1.000     C          0.560298  
         C31       1.0000    0.34840   0.01360   0.97800   Biso      1.000     C          0.172596  
         C32       1.0000    0.05030   0.54480   0.19840   Biso      1.000     C          0.08095   
         C33       1.0000    0.55030   0.74320   0.80160   Biso      1.000     C          0.081516  
         C34       1.0000    0.20850   0.40260   0.34640   Biso      1.000     C          0.172212  
         C35       1.0000    0.54650   0.17360   0.52640   Biso      1.000     C          0.124271  
         C36       1.0000    0.69260   0.19890   0.47380   Biso      1.000     C          -0.14602  
         C37       1.0000    0.04650   0.70000   0.47360   Biso      1.000     C          0.124463  
         C38       1.0000    0.92490   0.45360   0.35920   Biso      1.000     C          0.105687  
         C39       1.0000    0.49770   0.37370   0.93480   Biso      1.000     C          -0.142343           
         C40       1.0000    0.97850   0.26660   0.99560   Biso      1.000     C          0.116954  
         C41       1.0000    0.63330   0.47110   0.12240   Biso      1.000     C          0.552037  
         C42       1.0000    0.33670   0.65540   0.38080   Biso      1.000     C          -0.031555           
         C43       1.0000    0.56100   0.28850   0.15000   Biso      1.000     C          -0.103793           
         C44       1.0000    0.19000   0.68170   0.32800   Biso      1.000     C          -0.117151           
         C45       1.0000    0.83400   0.13110   0.51840   Biso      1.000     C          -0.108581           
         C46       1.0000    0.36810   0.33540   0.39100   Biso      1.000     C          -0.157754           
         C47       1.0000    0.42490   0.81280   0.64080   Biso      1.000     C          0.105858  
         C48       1.0000    0.73940   0.82930   0.16260   Biso      1.000     C          0.076497  
         C49       1.0000    0.23940   0.99190   0.83740   Biso      1.000     C          0.077666  
         C50       1.0000    0.58170   0.39970   0.07960   Biso      1.000     C          -0.017644           
         C51       1.0000    0.50930   0.22060   0.11380   Biso      1.000     C          -0.147688           
         C52       1.0000    0.06820   0.38710   0.40640   Biso      1.000     C          -0.194107           
         C53       1.0000    0.35670   0.89730   0.03900   Biso      1.000     C          -0.191217           
         C54       1.0000    0.85670   0.93630   0.96100   Biso      1.000     C          -0.189298           
         C55       1.0000    0.70850   0.74900   0.65360   Biso      1.000     C          0.172991  
         C56       1.0000    0.00930   0.33440   0.88620   Biso      1.000     C          -0.146545           
         H1        1.0000    0.89100   0.11950   0.10900   Biso      1.000     H          0.105787  
         H2        1.0000    0.31790   0.75280   0.03860   Biso      1.000     H          0.10334   
         H3        1.0000    0.58260   0.25850   0.22420   Biso      1.000     H          0.118581  
         H4        1.0000    0.39440   0.86090   0.11080   Biso      1.000     H          0.129436  
         H5        1.0000    0.93080   0.13900   0.90660   Biso      1.000     H          0.111008  
         H6        1.0000    0.18840   0.68500   0.25960   Biso      1.000     H          0.103897  
         H7        1.0000    0.04440   0.60030   0.12500   Biso      1.000     H          0.086294  
         H8        1.0000    0.79580   0.74500   0.47300   Biso      1.000     H          0.112242  
         H9        1.0000    0.81790   0.79140   0.96140   Biso      1.000     H          0.103978  
         H10       1.0000    0.07030   0.33110   0.47960   Biso      1.000     H          0.129596  
         H11       1.0000    0.79210   0.69050   0.80500   Biso      1.000     H          0.136798  
         H12       1.0000    0.29210   0.49550   0.19500   Biso      1.000     H          0.136684  
         H13       1.0000    0.56990   0.51910   0.92160   Biso      1.000     H          0.112849  
         H14       1.0000    0.27230   0.14140   0.82880   Biso      1.000     H          0.130295  
         H15       1.0000    0.69600   0.79350   0.23280   Biso      1.000     H          0.093401  
         H16       1.0000    0.69430   0.26430   0.40580   Biso      1.000     H          0.118139  
         H17       1.0000    0.49420   0.14470   0.16320   Biso      1.000     H          0.11302   
         H18       1.0000    0.29580   0.21800   0.52700   Biso      1.000     H          0.112032  
         H19       1.0000    0.32990   0.84540   0.59840   Biso      1.000     H          0.103087  
         H20       1.0000    0.89440   0.97170   0.88920   Biso      1.000     H          0.129097  
         H21       1.0000    0.19430   0.67010   0.59420   Biso      1.000     H          0.118983  
         H22       1.0000    0.08260   0.48270   0.77580   Biso      1.000     H          0.117378  
         H23       1.0000    0.94890   0.71950   0.33800   Biso      1.000     H          0.107953  
         H24       1.0000    0.82990   0.44380   0.40160   Biso      1.000     H          0.102626  
         H25       1.0000    0.77230   0.97020   0.17120   Biso      1.000     H          0.130774  
         H26       1.0000    0.93200   0.14910   0.48000   Biso      1.000     H          0.111295  
         H27       1.0000    0.47330   0.40420   0.86100   Biso      1.000     H          0.119513  
         H28       1.0000    0.97330   0.26520   0.13900   Biso      1.000     H          0.119291  
         H29       1.0000    0.06990   0.44070   0.07840   Biso      1.000     H          0.113074  
         H30       1.0000    0.43200   0.62910   0.52000   Biso      1.000     H          0.110412  
         H31       1.0000    0.19600   0.02630   0.76720   Biso      1.000     H          0.092956  
         H32       1.0000    0.39100   0.22850   0.89100   Biso      1.000     H          0.106073  
         H33       1.0000    0.96140   0.71090   0.65040   Biso      1.000     H          0.125182  
         H34       1.0000    0.44890   0.05750   0.66200   Biso      1.000     H          0.10711   
         H35       1.0000    0.54440   0.72530   0.87500   Biso      1.000     H          0.085883  
         H36       1.0000    0.99420   0.30790   0.83680   Biso      1.000     H          0.112645  
         H37       1.0000    0.46140   0.36130   0.34960   Biso      1.000     H          0.125563  
         H38       1.0000    0.57030   0.81070   0.52040   Biso      1.000     H          0.130016  
         H39       1.0000    0.68840   0.94460   0.74040   Biso      1.000     H          0.103388  
         H40       1.0000    0.43080   0.04560   0.09340   Biso      1.000     H          0.111662  
         N1        1.0000    0.41610   0.78660   0.74480   Biso      1.000     N          -0.229694           
         N2        1.0000    0.91610   0.53140   0.25520   Biso      1.000     N          -0.229288           
         N3        1.0000    0.25330   0.87860   0.89500   Biso      1.000     N          -0.23293  
         N4        1.0000    0.75330   0.77360   0.10500   Biso      1.000     N          -0.231516           
         O1        1.0000    0.65720   0.43085   0.22090   Biso      1.000     O          -0.545884           
         O2        1.0000    0.62120   0.60470   0.38220   Biso      1.000     O          -0.590337           
         O3        1.0000    0.65280   0.57569   0.05962   Biso      1.000     O          -0.560726           
         O4        1.0000    0.98540   0.88080   0.76180   Biso      1.000     O          -0.55146  
         O5        1.0000    0.12120   0.98690   0.61780   Biso      1.000     O          -0.59021  
         O6        1.0000    0.48540   0.64260   0.23820   Biso      1.000     O          -0.551261           
         O7        1.0000    0.15720   0.65175   0.77910   Biso      1.000     O          -0.546196           
         O8        1.0000    0.15280   0.63531   0.94038   Biso      1.000     O          -0.561262           
         Zn1       1.0000    0.19643   0.79126   0.81766   Biso      1.000     Zn          0.75051   
         Zn2       1.0000    0.69643   0.60892   0.18234   Biso      1.000     Zn          0.749947 