
##########################################################################
#               Crystallographic Information Format file
#               Produced by PyCifRW module
#
#  This is a CIF file.  CIF has been adopted by the International
#  Union of Crystallography as the standard for data archiving and
#  transmission.
#
#  For information on this file format, follow the CIF links at
#  http://www.iucr.org
##########################################################################

data_image0

_cell_length_a                          10.45
_cell_length_b                          10.45
_cell_length_c                          22.736
_cell_angle_alpha                       90
_cell_angle_beta                        90
_cell_angle_gamma                       90
_symmetry_space_group_name_H-M          'P 1'
_symmetry_int_tables_number             1
loop_
  _symmetry_equiv_pos_as_xyz
         'x, y, z' 
loop_
  _atom_site_label
  _atom_site_occupancy
  _atom_site_fract_x
  _atom_site_fract_y
  _atom_site_fract_z
  _atom_site_thermal_displace_type
  _atom_site_B_iso_or_equiv
  _atom_site_type_symbol
  _atom_site_charge
         C1        1.0000    0.92060   0.22700   0.45450   Biso      1.000     C          0.027401  
         C2        1.0000    0.07940   0.77300   0.95450   Biso      1.000     C          0.027417  
         C3        1.0000    0.04140   0.37400   0.94860   Biso      1.000     C          0.055372000000000005          
         C4        1.0000    0.40200   0.86130   0.76660   Biso      1.000     C          0.050752  
         C5        1.0000    0.45710   0.25660   0.77360   Biso      1.000     C          0.01936   
         C6        1.0000    0.56900   0.03690   0.81060   Biso      1.000     C          -0.123331           
         C7        1.0000    0.29820   0.07530   0.81700   Biso      1.000     C          0.025015  
         C8        1.0000    0.43910   0.20050   0.65960   Biso      1.000     C          0.013266  
         C9        1.0000    0.41310   0.92890   0.65720   Biso      1.000     C          -0.121502           
         C10       1.0000    0.22700   0.07940   0.70450   Biso      1.000     C          0.027384  
         C11       1.0000    0.62600   0.04140   0.69860   Biso      1.000     C          0.055349  
         C12       1.0000    0.59800   0.13870   0.26660   Biso      1.000     C          0.050704  
         C13       1.0000    0.54290   0.74340   0.27360   Biso      1.000     C          0.019301  
         C14       1.0000    0.43100   0.96310   0.31060   Biso      1.000     C          -0.123304           
         C15       1.0000    0.70180   0.92470   0.31700   Biso      1.000     C          0.025046000000000002          
         C16       1.0000    0.56090   0.79950   0.15960   Biso      1.000     C          0.013308  
         C17       1.0000    0.58690   0.07110   0.15720   Biso      1.000     C          -0.121501           
         C18       1.0000    0.77300   0.92060   0.20450   Biso      1.000     C          0.027372000000000004          
         C19       1.0000    0.37400   0.95860   0.19860   Biso      1.000     C          0.055342999999999996          
         C20       1.0000    0.07530   0.70180   0.06700   Biso      1.000     C          0.024995  
         C21       1.0000    0.03690   0.43100   0.06060   Biso      1.000     C          -0.123304           
         C22       1.0000    0.25660   0.54290   0.02360   Biso      1.000     C          0.019386  
         C23       1.0000    0.86130   0.59800   0.01660   Biso      1.000     C          0.05078   
         C24       1.0000    0.95860   0.62600   0.44860   Biso      1.000     C          0.05536699999999999           
         C25       1.0000    0.07110   0.41310   0.40720   Biso      1.000     C          -0.121504           
         C26       1.0000    0.79950   0.43910   0.40960   Biso      1.000     C          0.01319   
         C27       1.0000    0.92470   0.29820   0.56700   Biso      1.000     C          0.025027  
         C28       1.0000    0.96310   0.56900   0.56060   Biso      1.000     C          -0.12330899999999999          
         C29       1.0000    0.74340   0.45710   0.52360   Biso      1.000     C          0.0194    
         C30       1.0000    0.13870   0.40200   0.51660   Biso      1.000     C          0.050778  
         C31       1.0000    0.92890   0.58690   0.90720   Biso      1.000     C          -0.12148099999999999          
         C32       1.0000    0.20050   0.56090   0.90960   Biso      1.000     C          0.013272999999999998          
         Mn1       1.0000    0.57161   0.44163   0.30281   Biso      1.000     Mn          1.0851899999999999  
         Mn2       1.0000    0.93986   0.92648   0.41835   Biso      1.000     Mn          1.078635  
         Mn3       1.0000    0.44163   0.42839   0.55281   Biso      1.000     Mn          1.085582  
         Mn4       1.0000    0.06014   0.07352   0.91835   Biso      1.000     Mn          1.07865   
         Mn5       1.0000    0.55837   0.57161   0.05281   Biso      1.000     Mn          1.085623  
         Mn6       1.0000    0.92648   0.06014   0.66835   Biso      1.000     Mn          1.078559  
         Mn7       1.0000    0.42839   0.55837   0.80281   Biso      1.000     Mn          1.085486  
         Mn8       1.0000    0.07352   0.93986   0.16835   Biso      1.000     Mn          1.078486  
         N1        1.0000    0.40340   0.84780   0.62320   Biso      1.000     N          -0.325981           
         N2        1.0000    0.27770   0.55180   0.87220   Biso      1.000     N          -0.380287           
         N3        1.0000    0.08220   0.77720   0.10220   Biso      1.000     N          -0.37254499999999996          
         N4        1.0000    0.84780   0.59660   0.87320   Biso      1.000     N          -0.325997           
         N5        1.0000    0.08600   0.87360   0.93560   Biso      1.000     N          -0.378591           
         N6        1.0000    0.02880   0.34850   0.09310   Biso      1.000     N          -0.329853           
         N7        1.0000    0.03220   0.27660   0.92590   Biso      1.000     N          -0.389805           
         N8        1.0000    0.35350   0.53270   0.04760   Biso      1.000     N          -0.383941           
         N9        1.0000    0.15220   0.40340   0.37320   Biso      1.000     N          -0.325939           
         N10       1.0000    0.72230   0.44820   0.37220   Biso      1.000     N          -0.380203           
         N11       1.0000    0.91780   0.22280   0.60220   Biso      1.000     N          -0.37262399999999996          
         N12       1.0000    0.39240   0.75990   0.78450   Biso      1.000     N          -0.38514699999999996          
         N13       1.0000    0.91400   0.12640   0.43560   Biso      1.000     N          -0.378565           
         N14       1.0000    0.97120   0.65150   0.59310   Biso      1.000     N          -0.32998  
         N15       1.0000    0.96780   0.72340   0.42590   Biso      1.000     N          -0.389775           
         N16       1.0000    0.75990   0.60760   0.03450   Biso      1.000     N          -0.38513000000000003          
         N17       1.0000    0.46730   0.35350   0.79760   Biso      1.000     N          -0.383973           
         N18       1.0000    0.24010   0.39240   0.53450   Biso      1.000     N          -0.38516999999999996          
         N19       1.0000    0.65150   0.02880   0.84310   Biso      1.000     N          -0.329968           
         N20       1.0000    0.64650   0.46730   0.54760   Biso      1.000     N          -0.384    
         N21       1.0000    0.55180   0.72230   0.12220   Biso      1.000     N          -0.380369           
         N22       1.0000    0.77720   0.91780   0.35220   Biso      1.000     N          -0.37266900000000003          
         N23       1.0000    0.59660   0.15220   0.12320   Biso      1.000     N          -0.32613000000000003          
         N24       1.0000    0.87360   0.91400   0.18560   Biso      1.000     N          -0.37863  
         N25       1.0000    0.72340   0.03220   0.67590   Biso      1.000     N          -0.389785           
         N26       1.0000    0.34850   0.97120   0.34310   Biso      1.000     N          -0.330049           
         N27       1.0000    0.53270   0.64650   0.29760   Biso      1.000     N          -0.38397  
         N28       1.0000    0.60760   0.24010   0.28450   Biso      1.000     N          -0.38514499999999996          
         N29       1.0000    0.44820   0.27770   0.62220   Biso      1.000     N          -0.380281           
         N30       1.0000    0.22280   0.08220   0.85220   Biso      1.000     N          -0.372613           
         N31       1.0000    0.12640   0.08600   0.68560   Biso      1.000     N          -0.378571           
         N32       1.0000    0.27660   0.96780   0.17590   Biso      1.000     N          -0.389852           
         Nb1       1.0000    0.93855   0.42879   0.48584   Biso      1.000     Nb          0.8359989999999999  
         Nb2       1.0000    0.57121   0.93855   0.23584   Biso      1.000     Nb          0.8359709999999999  
         Nb3       1.0000    0.42879   0.06145   0.73584   Biso      1.000     Nb          0.836023  
         Nb4       1.0000    0.06145   0.57121   0.98584   Biso      1.000     Nb          0.8359850000000001 