
##########################################################################
#               Crystallographic Information Format file
#               Produced by PyCifRW module
#
#  This is a CIF file.  CIF has been adopted by the International
#  Union of Crystallography as the standard for data archiving and
#  transmission.
#
#  For information on this file format, follow the CIF links at
#  http://www.iucr.org
##########################################################################

data_image0

_cell_length_a                          10.459
_cell_length_b                          10.46
_cell_length_c                          11.54
_cell_angle_alpha                       83.159
_cell_angle_beta                        82.12
_cell_angle_gamma                       88.964
_symmetry_space_group_name_H-M          'P 1'
_symmetry_int_tables_number             1
loop_
  _symmetry_equiv_pos_as_xyz
         'x, y, z' 
loop_
  _atom_site_label
  _atom_site_occupancy
  _atom_site_fract_x
  _atom_site_fract_y
  _atom_site_fract_z
  _atom_site_thermal_displace_type
  _atom_site_B_iso_or_equiv
  _atom_site_type_symbol
  _atom_site_charge
         C1        1.0000    0.56500   0.68410   0.81290   Biso      1.000     C          0.054625  
         C2        1.0000    0.66660   0.72510   0.59450   Biso      1.000     C          -0.11757000000000001          
         C3        1.0000    0.76890   0.57010   0.91150   Biso      1.000     C          0.025688  
         C4        1.0000    0.95860   0.73910   0.82800   Biso      1.000     C          0.020934  
         C5        1.0000    0.76850   0.92620   0.67540   Biso      1.000     C          0.049497  
         C6        1.0000    0.80140   0.52610   0.69170   Biso      1.000     C          0.029874  
         C7        1.0000    0.27270   0.15840   0.09700   Biso      1.000     C          -0.131261           
         C8        1.0000    0.06220   0.25750   0.40360   Biso      1.000     C          0.015844  
         C9        1.0000    0.19860   0.47390   0.30830   Biso      1.000     C          0.029875  
         C10       1.0000    0.23150   0.07380   0.32460   Biso      1.000     C          0.049498  
         C11       1.0000    0.43500   0.31590   0.18710   Biso      1.000     C          0.054626999999999995          
         C12       1.0000    0.04140   0.26090   0.17200   Biso      1.000     C          0.020936  
         C13       1.0000    0.23110   0.42990   0.08850   Biso      1.000     C          0.025687  
         C14       1.0000    0.33340   0.27490   0.40550   Biso      1.000     C          -0.117567           
         C15       1.0000    0.72730   0.84160   0.90300   Biso      1.000     C          -0.131261           
         C16       1.0000    0.93780   0.74250   0.59640   Biso      1.000     C          0.015846000000000002          
         Mn1       1.0000    0.25187   0.69491   0.88363   Biso      1.000     Mn          1.086407  
         Mn2       1.0000    0.79752   0.23570   0.61346   Biso      1.000     Mn          1.0805    
         Mn3       1.0000    0.74813   0.30509   0.11637   Biso      1.000     Mn          1.086416  
         Mn4       1.0000    0.20248   0.76430   0.38654   Biso      1.000     Mn          1.080503  
         N1        1.0000    0.18470   0.56880   0.34830   Biso      1.000     N          -0.382203           
         N2        1.0000    0.81530   0.43120   0.65170   Biso      1.000     N          -0.382204           
         N3        1.0000    0.04830   0.73690   0.87630   Biso      1.000     N          -0.386467           
         N4        1.0000    0.76900   0.48240   0.98430   Biso      1.000     N          -0.381707           
         N5        1.0000    0.76850   0.03080   0.62960   Biso      1.000     N          -0.389681           
         N6        1.0000    0.02510   0.75540   0.52380   Biso      1.000     N          -0.377374           
         N7        1.0000    0.59950   0.72570   0.52470   Biso      1.000     N          -0.32833  
         N8        1.0000    0.29350   0.08440   0.03120   Biso      1.000     N          -0.321291           
         N9        1.0000    0.70650   0.91560   0.96880   Biso      1.000     N          -0.321294           
         N10       1.0000    0.95170   0.26310   0.12370   Biso      1.000     N          -0.386467           
         N11       1.0000    0.23100   0.51760   0.01570   Biso      1.000     N          -0.381705           
         N12       1.0000    0.23150   0.96920   0.37040   Biso      1.000     N          -0.38968  
         N13       1.0000    0.97490   0.24460   0.47620   Biso      1.000     N          -0.377372           
         N14       1.0000    0.40050   0.27430   0.47530   Biso      1.000     N          -0.328327           
         N15       1.0000    0.45860   0.66890   0.84740   Biso      1.000     N          -0.382998           
         N16       1.0000    0.54140   0.33110   0.15260   Biso      1.000     N          -0.382999           
         Nb1       1.0000    0.77515   0.72048   0.75203   Biso      1.000     Nb          0.835501  
         Nb2       1.0000    0.22485   0.27952   0.24797   Biso      1.000     Nb          0.8355 