
##########################################################################
#               Crystallographic Information Format file
#               Produced by PyCifRW module
#
#  This is a CIF file.  CIF has been adopted by the International
#  Union of Crystallography as the standard for data archiving and
#  transmission.
#
#  For information on this file format, follow the CIF links at
#  http://www.iucr.org
##########################################################################

data_image0

_cell_length_a                          6.2872
_cell_length_b                          14.314
_cell_length_c                          14.314
_cell_angle_alpha                       90
_cell_angle_beta                        90
_cell_angle_gamma                       90
_symmetry_space_group_name_H-M          'P 1'
_symmetry_int_tables_number             1
loop_
  _symmetry_equiv_pos_as_xyz
         'x, y, z' 
loop_
  _atom_site_label
  _atom_site_occupancy
  _atom_site_fract_x
  _atom_site_fract_y
  _atom_site_fract_z
  _atom_site_thermal_displace_type
  _atom_site_B_iso_or_equiv
  _atom_site_type_symbol
  _atom_site_charge
         C1        1.0000    0.58640   0.72940   0.55820   Biso      1.000     C          0.139985  
         C2        1.0000    0.08640   0.44180   0.22940   Biso      1.000     C          0.140012  
         C3        1.0000    0.92200   0.35120   0.12820   Biso      1.000     C          -0.138433           
         C4        1.0000    0.52560   0.53740   0.08790   Biso      1.000     C          -0.152072           
         C5        1.0000    0.64180   0.43149   0.97161   Biso      1.000     C          -0.145005           
         C6        1.0000    0.66090   0.47100   0.05780   Biso      1.000     C          0.069875  
         C7        1.0000    0.83720   0.06200   0.38380   Biso      1.000     C          0.137571  
         C8        1.0000    0.08640   0.05820   0.27060   Biso      1.000     C          0.140013  
         C9        1.0000    0.92200   0.14880   0.37180   Biso      1.000     C          -0.138425           
         C10       1.0000    0.52560   0.96260   0.41210   Biso      1.000     C          -0.152073           
         C11       1.0000    0.83720   0.43800   0.11620   Biso      1.000     C          0.137576  
         C12       1.0000    0.64180   0.06851   0.52839   Biso      1.000     C          -0.145002           
         C13       1.0000    0.33720   0.61620   0.56200   Biso      1.000     C          0.137544  
         C14       1.0000    0.42200   0.62820   0.64880   Biso      1.000     C          -0.13842100000000002          
         C15       1.0000    0.02560   0.58790   0.46260   Biso      1.000     C          -0.152084           
         C16       1.0000    0.14180   0.47161   0.56851   Biso      1.000     C          -0.145017           
         C17       1.0000    0.16090   0.55780   0.52900   Biso      1.000     C          0.069906  
         C18       1.0000    0.16090   0.94220   0.97100   Biso      1.000     C          0.069877  
         C19       1.0000    0.14180   0.02839   0.93149   Biso      1.000     C          -0.145009           
         C20       1.0000    0.02560   0.91210   0.03740   Biso      1.000     C          -0.152061           
         C21       1.0000    0.42200   0.87180   0.85120   Biso      1.000     C          -0.138429           
         C22       1.0000    0.66090   0.02900   0.44220   Biso      1.000     C          0.069874  
         C23       1.0000    0.83910   0.05780   0.02900   Biso      1.000     C          0.069936  
         C24       1.0000    0.85820   0.97161   0.06851   Biso      1.000     C          -0.145541           
         C25       1.0000    0.97440   0.08790   0.96260   Biso      1.000     C          -0.152999           
         C26       1.0000    0.16280   0.56200   0.88380   Biso      1.000     C          0.13403199999999998           
         C27       1.0000    0.91360   0.55820   0.77060   Biso      1.000     C          0.141929  
         C28       1.0000    0.07800   0.64880   0.87180   Biso      1.000     C          -0.142776           
         C29       1.0000    0.47440   0.46260   0.91210   Biso      1.000     C          -0.153008           
         C30       1.0000    0.35820   0.56851   0.02839   Biso      1.000     C          -0.145536           
         C31       1.0000    0.33910   0.52900   0.94220   Biso      1.000     C          0.069972  
         C32       1.0000    0.16280   0.93800   0.61620   Biso      1.000     C          0.13403199999999998           
         C33       1.0000    0.91360   0.94180   0.72940   Biso      1.000     C          0.14193   
         C34       1.0000    0.07800   0.85120   0.62820   Biso      1.000     C          -0.142776           
         C35       1.0000    0.47440   0.03740   0.58790   Biso      1.000     C          -0.15300999999999998          
         C36       1.0000    0.35820   0.93149   0.47161   Biso      1.000     C          -0.145532           
         C37       1.0000    0.33910   0.97100   0.55780   Biso      1.000     C          0.069971  
         C38       1.0000    0.66280   0.38380   0.43800   Biso      1.000     C          0.134078  
         C39       1.0000    0.41360   0.27060   0.44180   Biso      1.000     C          0.14197200000000001           
         C40       1.0000    0.57800   0.37180   0.35120   Biso      1.000     C          -0.142751           
         C41       1.0000    0.97440   0.41210   0.53740   Biso      1.000     C          -0.153022           
         C42       1.0000    0.85820   0.52839   0.43149   Biso      1.000     C          -0.145549           
         C43       1.0000    0.83910   0.44220   0.47100   Biso      1.000     C          0.069965  
         C44       1.0000    0.66280   0.11620   0.06200   Biso      1.000     C          0.134079  
         C45       1.0000    0.41360   0.22940   0.05820   Biso      1.000     C          0.141971  
         C46       1.0000    0.57800   0.12820   0.14880   Biso      1.000     C          -0.142752           
         C47       1.0000    0.58640   0.77060   0.94180   Biso      1.000     C          0.139984  
         C48       1.0000    0.33720   0.88380   0.93800   Biso      1.000     C          0.137553  
         Co1       1.0000    0.75000   0.75000   0.75000   Biso      1.000     Co          0.296102  
         Co2       1.0000    0.25000   0.25000   0.25000   Biso      1.000     Co          0.29639699999999997           
         H1        1.0000    0.82430   0.53420   0.72470   Biso      1.000     H          0.0912    
         H2        1.0000    0.54130   0.56280   0.14730   Biso      1.000     H          0.027242000000000002          
         H3        1.0000    0.73570   0.38530   0.95210   Biso      1.000     H          0.078551  
         H4        1.0000    0.91460   0.95200   0.31040   Biso      1.000     H          0.208829  
         H5        1.0000    0.17570   0.03420   0.22470   Biso      1.000     H          0.09037   
         H6        1.0000    0.88290   0.20180   0.40530   Biso      1.000     H          0.121189  
         H7        1.0000    0.08540   0.45200   0.81040   Biso      1.000     H          0.20800500000000002           
         H8        1.0000    0.73570   0.11470   0.54790   Biso      1.000     H          0.07855   
         H9        1.0000    0.41460   0.68960   0.45200   Biso      1.000     H          0.208794  
         H10       1.0000    0.67570   0.77530   0.53420   Biso      1.000     H          0.090374  
         H11       1.0000    0.38290   0.59470   0.70180   Biso      1.000     H          0.12119200000000001           
         H12       1.0000    0.04130   0.64730   0.43720   Biso      1.000     H          0.027242000000000002          
         H13       1.0000    0.23570   0.45210   0.61470   Biso      1.000     H          0.078565  
         H14       1.0000    0.41460   0.81040   0.04800   Biso      1.000     H          0.208794  
         H15       1.0000    0.67570   0.72470   0.96580   Biso      1.000     H          0.090375  
         H16       1.0000    0.38290   0.90530   0.79820   Biso      1.000     H          0.12119300000000001           
         H17       1.0000    0.04130   0.85270   0.06280   Biso      1.000     H          0.027239999999999997          
         H18       1.0000    0.23570   0.04790   0.88530   Biso      1.000     H          0.078565  
         H19       1.0000    0.88290   0.29820   0.09470   Biso      1.000     H          0.121189  
         H20       1.0000    0.17570   0.46580   0.27530   Biso      1.000     H          0.09037   
         H21       1.0000    0.54130   0.93720   0.35270   Biso      1.000     H          0.027238  
         H22       1.0000    0.76430   0.95210   0.11470   Biso      1.000     H          0.079536  
         H23       1.0000    0.11710   0.70180   0.90530   Biso      1.000     H          0.119716  
         H24       1.0000    0.91460   0.54800   0.18960   Biso      1.000     H          0.208833  
         H25       1.0000    0.26430   0.61470   0.04790   Biso      1.000     H          0.079555  
         H26       1.0000    0.08540   0.04800   0.68960   Biso      1.000     H          0.208002  
         H27       1.0000    0.82430   0.96580   0.77530   Biso      1.000     H          0.0912    
         H28       1.0000    0.11710   0.79820   0.59470   Biso      1.000     H          0.119716  
         H29       1.0000    0.45870   0.06280   0.64730   Biso      1.000     H          0.026488  
         H30       1.0000    0.26430   0.88530   0.45210   Biso      1.000     H          0.079553  
         H31       1.0000    0.45870   0.43720   0.85270   Biso      1.000     H          0.026489999999999996          
         H32       1.0000    0.32430   0.22470   0.46580   Biso      1.000     H          0.091201  
         H33       1.0000    0.61710   0.40530   0.29820   Biso      1.000     H          0.11972200000000001           
         H34       1.0000    0.95870   0.35270   0.56280   Biso      1.000     H          0.026474  
         H35       1.0000    0.76430   0.54790   0.38530   Biso      1.000     H          0.079537  
         H36       1.0000    0.58540   0.18960   0.95200   Biso      1.000     H          0.208035  
         H37       1.0000    0.32430   0.27530   0.03420   Biso      1.000     H          0.091201  
         H38       1.0000    0.61710   0.09470   0.20180   Biso      1.000     H          0.11972200000000001           
         H39       1.0000    0.95870   0.14730   0.93720   Biso      1.000     H          0.026472000000000002          
         H40       1.0000    0.58540   0.31040   0.54800   Biso      1.000     H          0.208033  
         N1        1.0000    0.05990   0.98971   0.68056   Biso      1.000     N          -0.260424           
         N2        1.0000    0.92000   0.85398   0.69993   Biso      1.000     N          -0.2492   
         N3        1.0000    0.55990   0.31944   0.48971   Biso      1.000     N          -0.260383           
         N4        1.0000    0.42000   0.30007   0.35398   Biso      1.000     N          -0.24925799999999998          
         N5        1.0000    0.55990   0.18056   0.01029   Biso      1.000     N          -0.260384           
         N6        1.0000    0.42000   0.19993   0.14602   Biso      1.000     N          -0.24925799999999998          
         N7        1.0000    0.94010   0.48971   0.18056   Biso      1.000     N          -0.262427           
         N8        1.0000    0.44010   0.68056   0.51029   Biso      1.000     N          -0.262436           
         N9        1.0000    0.94010   0.01029   0.31944   Biso      1.000     N          -0.262425           
         N10       1.0000    0.08000   0.14602   0.30007   Biso      1.000     N          -0.243808           
         N11       1.0000    0.58000   0.69993   0.64602   Biso      1.000     N          -0.24376799999999998          
         N12       1.0000    0.44010   0.81944   0.98971   Biso      1.000     N          -0.262438           
         N13       1.0000    0.58000   0.80007   0.85398   Biso      1.000     N          -0.24376799999999998          
         N14       1.0000    0.92000   0.64602   0.80007   Biso      1.000     N          -0.2492   
         N15       1.0000    0.08000   0.35398   0.19993   Biso      1.000     N          -0.24380700000000002          
         N16       1.0000    0.05990   0.51029   0.81944   Biso      1.000     N          -0.260424 