
##########################################################################
#               Crystallographic Information Format file
#               Produced by PyCifRW module
#
#  This is a CIF file.  CIF has been adopted by the International
#  Union of Crystallography as the standard for data archiving and
#  transmission.
#
#  For information on this file format, follow the CIF links at
#  http://www.iucr.org
##########################################################################

data_image0

_cell_length_a                          12.0178
_cell_length_b                          12.0178
_cell_length_c                          19.425
_cell_angle_alpha                       77.4186
_cell_angle_beta                        77.4186
_cell_angle_gamma                       77.6894
_symmetry_space_group_name_H-M          'P 1'
_symmetry_int_tables_number             1
loop_
  _symmetry_equiv_pos_as_xyz
         'x, y, z' 
loop_
  _atom_site_label
  _atom_site_occupancy
  _atom_site_fract_x
  _atom_site_fract_y
  _atom_site_fract_z
  _atom_site_thermal_displace_type
  _atom_site_B_iso_or_equiv
  _atom_site_type_symbol
  _atom_site_charge
         C1        1.0000    0.28900   0.64180   0.57520   Biso      1.000     C          -0.117533           
         C2        1.0000    0.34060   0.82100   0.60430   Biso      1.000     C          0.6052420000000001  
         C3        1.0000    0.45140   0.04460   0.99600   Biso      1.000     C          0.007948  
         C4        1.0000    0.42090   0.11310   0.93620   Biso      1.000     C          -0.179731           
         C5        1.0000    0.31690   0.19610   0.94700   Biso      1.000     C          -0.114402           
         C6        1.0000    0.27050   0.18830   0.01880   Biso      1.000     C          -0.128436           
         C7        1.0000    0.16210   0.26070   0.05050   Biso      1.000     C          0.635941  
         C8        1.0000    0.24970   0.71350   0.22160   Biso      1.000     C          0.006201  
         C9        1.0000    0.27790   0.74390   0.14960   Biso      1.000     C          -0.167174           
         C10       1.0000    0.22440   0.68820   0.11220   Biso      1.000     C          -0.10267899999999999          
         C11       1.0000    0.15880   0.61460   0.15510   Biso      1.000     C          -0.12683699999999998          
         C12       1.0000    0.09580   0.53780   0.13420   Biso      1.000     C          0.655215  
         C13       1.0000    0.54080   0.45940   0.01850   Biso      1.000     C          -0.0038469999999999997        
         C14       1.0000    0.54300   0.34160   0.04480   Biso      1.000     C          -0.165855           
         C15       1.0000    0.64180   0.28900   0.07520   Biso      1.000     C          -0.117487           
         C16       1.0000    0.71190   0.36670   0.07330   Biso      1.000     C          -0.13262000000000002          
         C17       1.0000    0.82100   0.34060   0.10430   Biso      1.000     C          0.605292  
         C18       1.0000    0.95540   0.54860   0.50400   Biso      1.000     C          0.007979  
         C19       1.0000    0.36670   0.71190   0.57330   Biso      1.000     C          -0.13261900000000001          
         C20       1.0000    0.88690   0.57910   0.56380   Biso      1.000     C          -0.179779           
         C21       1.0000    0.75030   0.28650   0.77840   Biso      1.000     C          0.006227  
         C22       1.0000    0.45940   0.54080   0.51850   Biso      1.000     C          -0.0038810000000000003        
         C23       1.0000    0.84120   0.38540   0.84490   Biso      1.000     C          -0.126885           
         C24       1.0000    0.90420   0.46220   0.86580   Biso      1.000     C          0.65523   
         C25       1.0000    0.45920   0.54060   0.98150   Biso      1.000     C          -0.003853           
         C26       1.0000    0.45700   0.65840   0.95520   Biso      1.000     C          -0.165847           
         C27       1.0000    0.35820   0.71100   0.92480   Biso      1.000     C          -0.11746199999999998          
         C28       1.0000    0.28810   0.63330   0.92670   Biso      1.000     C          -0.132613           
         C29       1.0000    0.17900   0.65940   0.89570   Biso      1.000     C          0.605284  
         C30       1.0000    0.04460   0.45140   0.49600   Biso      1.000     C          0.007921  
         C31       1.0000    0.11310   0.42090   0.43620   Biso      1.000     C          -0.179795           
         C32       1.0000    0.19610   0.31690   0.44700   Biso      1.000     C          -0.11446500000000001          
         C33       1.0000    0.18830   0.27050   0.51880   Biso      1.000     C          -0.128407           
         C34       1.0000    0.26070   0.16210   0.55050   Biso      1.000     C          0.635888  
         C35       1.0000    0.71350   0.24970   0.72160   Biso      1.000     C          0.006147  
         C36       1.0000    0.74390   0.27790   0.64960   Biso      1.000     C          -0.167141           
         C37       1.0000    0.68820   0.22440   0.61220   Biso      1.000     C          -0.10270499999999999          
         C38       1.0000    0.61460   0.15880   0.65510   Biso      1.000     C          -0.126779           
         C39       1.0000    0.53780   0.09580   0.63420   Biso      1.000     C          0.655141  
         C40       1.0000    0.34160   0.54300   0.54480   Biso      1.000     C          -0.16586800000000002          
         C41       1.0000    0.80390   0.68310   0.55300   Biso      1.000     C          -0.11441300000000001          
         C42       1.0000    0.81170   0.72950   0.48120   Biso      1.000     C          -0.128402           
         C43       1.0000    0.73930   0.83790   0.44950   Biso      1.000     C          0.635934  
         C44       1.0000    0.54860   0.95540   0.00400   Biso      1.000     C          0.007948  
         C45       1.0000    0.57910   0.88690   0.06380   Biso      1.000     C          -0.179768           
         C46       1.0000    0.68310   0.80390   0.05300   Biso      1.000     C          -0.11442000000000001          
         C47       1.0000    0.72950   0.81170   0.98120   Biso      1.000     C          -0.128445           
         C48       1.0000    0.83790   0.73930   0.94950   Biso      1.000     C          0.63595   
         C49       1.0000    0.77560   0.31180   0.88780   Biso      1.000     C          -0.102664           
         C50       1.0000    0.65940   0.17900   0.39570   Biso      1.000     C          0.605275  
         C51       1.0000    0.63330   0.28810   0.42670   Biso      1.000     C          -0.132626           
         C52       1.0000    0.72210   0.25610   0.85040   Biso      1.000     C          -0.167192           
         C53       1.0000    0.65840   0.45700   0.45520   Biso      1.000     C          -0.165881           
         C54       1.0000    0.28650   0.75030   0.27840   Biso      1.000     C          0.006177  
         C55       1.0000    0.25610   0.72210   0.35040   Biso      1.000     C          -0.16711900000000002          
         C56       1.0000    0.31180   0.77560   0.38780   Biso      1.000     C          -0.102655           
         C57       1.0000    0.38540   0.84120   0.34490   Biso      1.000     C          -0.12676400000000002          
         C58       1.0000    0.46220   0.90420   0.36580   Biso      1.000     C          0.655195  
         C59       1.0000    0.54060   0.45920   0.48150   Biso      1.000     C          -0.003849           
         C60       1.0000    0.71100   0.35820   0.42480   Biso      1.000     C          -0.11751400000000001          
         H1        1.0000    0.78950   0.34230   0.40550   Biso      1.000     H          0.135283  
         H2        1.0000    0.69790   0.51430   0.45750   Biso      1.000     H          0.127708  
         H3        1.0000    0.29850   0.76630   0.43750   Biso      1.000     H          0.125856  
         H4        1.0000    0.20400   0.67260   0.37300   Biso      1.000     H          0.12373599999999998           
         H5        1.0000    0.75170   0.71490   0.58950   Biso      1.000     H          0.14285499999999998           
         H6        1.0000    0.89310   0.53570   0.60920   Biso      1.000     H          0.117579  
         H7        1.0000    0.65770   0.21050   0.09450   Biso      1.000     H          0.135297  
         H8        1.0000    0.48570   0.30210   0.04250   Biso      1.000     H          0.12771500000000002           
         H9        1.0000    0.32740   0.79600   0.12700   Biso      1.000     H          0.123724  
         H10       1.0000    0.28510   0.24830   0.91050   Biso      1.000     H          0.14285899999999999           
         H11       1.0000    0.46430   0.10690   0.89080   Biso      1.000     H          0.11757999999999999           
         H12       1.0000    0.21050   0.65770   0.59450   Biso      1.000     H          0.13528900000000002           
         H13       1.0000    0.30210   0.48570   0.54250   Biso      1.000     H          0.12771   
         H14       1.0000    0.79600   0.32740   0.62700   Biso      1.000     H          0.12371300000000002           
         H15       1.0000    0.24830   0.28510   0.41050   Biso      1.000     H          0.1428    
         H16       1.0000    0.10690   0.46430   0.39080   Biso      1.000     H          0.117546  
         H17       1.0000    0.34230   0.78950   0.90550   Biso      1.000     H          0.135318  
         H18       1.0000    0.51430   0.69790   0.95750   Biso      1.000     H          0.127716  
         H19       1.0000    0.76630   0.29850   0.93750   Biso      1.000     H          0.125813  
         H20       1.0000    0.67260   0.20400   0.87300   Biso      1.000     H          0.12371700000000001           
         H21       1.0000    0.71490   0.75170   0.08950   Biso      1.000     H          0.14284000000000002           
         H22       1.0000    0.53570   0.89310   0.10920   Biso      1.000     H          0.11755499999999999           
         H23       1.0000    0.23370   0.70150   0.06250   Biso      1.000     H          0.125828  
         H24       1.0000    0.70150   0.23370   0.56250   Biso      1.000     H          0.12581900000000001           
         Mn1       1.0000    0.67570   0.01804   0.32219   Biso      1.000     Mn          1.083677  
         Mn2       1.0000    0.00000   0.50000   0.00000   Biso      1.000     Mn          1.1014030000000001  
         Mn3       1.0000    0.50000   0.00000   0.50000   Biso      1.000     Mn          1.101022  
         Mn4       1.0000    0.01804   0.67570   0.82219   Biso      1.000     Mn          1.083366  
         Mn5       1.0000    0.32430   0.98196   0.67781   Biso      1.000     Mn          1.082433  
         Mn6       1.0000    0.98196   0.32430   0.17781   Biso      1.000     Mn          1.083243  
         O1        1.0000    0.84900   0.24680   0.14200   Biso      1.000     O          -0.544979           
         O2        1.0000    0.06040   0.46080   0.18260   Biso      1.000     O          -0.601517           
         O3        1.0000    0.08060   0.55620   0.07130   Biso      1.000     O          -0.5672229999999999           
         O4        1.0000    0.13250   0.23890   0.11570   Biso      1.000     O          -0.5727979999999999           
         O5        1.0000    0.11400   0.33800   0.00610   Biso      1.000     O          -0.576657           
         O6        1.0000    0.42280   0.87720   0.59180   Biso      1.000     O          -0.600529           
         O7        1.0000    0.24680   0.84900   0.64200   Biso      1.000     O          -0.544979           
         O8        1.0000    0.23890   0.13250   0.61570   Biso      1.000     O          -0.572746           
         O9        1.0000    0.55620   0.08060   0.57130   Biso      1.000     O          -0.567218           
         O10       1.0000    0.87720   0.42280   0.09180   Biso      1.000     O          -0.600594           
         O11       1.0000    0.33800   0.11400   0.50610   Biso      1.000     O          -0.576688           
         O12       1.0000    0.12280   0.57720   0.90820   Biso      1.000     O          -0.600608           
         O13       1.0000    0.15100   0.75320   0.85800   Biso      1.000     O          -0.544898           
         O14       1.0000    0.93960   0.53920   0.81740   Biso      1.000     O          -0.601517           
         O15       1.0000    0.91940   0.44380   0.92870   Biso      1.000     O          -0.567232           
         O16       1.0000    0.46080   0.06040   0.68260   Biso      1.000     O          -0.6014689999999999           
         O17       1.0000    0.66200   0.88600   0.49390   Biso      1.000     O          -0.576597           
         O18       1.0000    0.44380   0.91940   0.42870   Biso      1.000     O          -0.567118           
         O19       1.0000    0.86750   0.76110   0.88430   Biso      1.000     O          -0.5727760000000001           
         O20       1.0000    0.76110   0.86750   0.38430   Biso      1.000     O          -0.572872           
         O21       1.0000    0.57720   0.12280   0.40820   Biso      1.000     O          -0.600546           
         O22       1.0000    0.88600   0.66200   0.99390   Biso      1.000     O          -0.576669           
         O23       1.0000    0.53920   0.93960   0.31740   Biso      1.000     O          -0.60159  
         O24       1.0000    0.75320   0.15100   0.35800   Biso      1.000     O          -0.545003           
         S1        1.0000    0.64886   0.91740   0.92996   Biso      1.000     S          0.102184  
         S2        1.0000    0.83895   0.38793   0.75749   Biso      1.000     S          0.101627  
         S3        1.0000    0.33953   0.49809   0.96582   Biso      1.000     S          0.181832  
         S4        1.0000    0.08260   0.35114   0.57004   Biso      1.000     S          0.102104  
         S5        1.0000    0.50191   0.66047   0.53418   Biso      1.000     S          0.181788  
         S6        1.0000    0.35114   0.08260   0.07004   Biso      1.000     S          0.102101  
         S7        1.0000    0.16105   0.61207   0.24251   Biso      1.000     S          0.101613  
         S8        1.0000    0.66047   0.50191   0.03418   Biso      1.000     S          0.181826  
         S9        1.0000    0.91740   0.64886   0.42996   Biso      1.000     S          0.10208400000000001           
         S10       1.0000    0.38793   0.83895   0.25749   Biso      1.000     S          0.101565  
         S11       1.0000    0.49809   0.33953   0.46582   Biso      1.000     S          0.18185199999999999           
         S12       1.0000    0.61207   0.16105   0.74251   Biso      1.000     S          0.101529 