
##########################################################################
#               Crystallographic Information Format file
#               Produced by PyCifRW module
#
#  This is a CIF file.  CIF has been adopted by the International
#  Union of Crystallography as the standard for data archiving and
#  transmission.
#
#  For information on this file format, follow the CIF links at
#  http://www.iucr.org
##########################################################################

data_image0

_cell_length_a                          6.726
_cell_length_b                          11.298
_cell_length_c                          19.8076
_cell_angle_alpha                       106.57
_cell_angle_beta                        91.1214
_cell_angle_gamma                       90
_symmetry_space_group_name_H-M          'P 1'
_symmetry_int_tables_number             1
loop_
  _symmetry_equiv_pos_as_xyz
         'x, y, z' 
loop_
  _atom_site_label
  _atom_site_occupancy
  _atom_site_fract_x
  _atom_site_fract_y
  _atom_site_fract_z
  _atom_site_thermal_displace_type
  _atom_site_B_iso_or_equiv
  _atom_site_type_symbol
  _atom_site_charge
         C1        1.0000    0.97870   0.25670   0.59160   Biso      1.000     C          -0.279811           
         C2        1.0000    0.96070   0.46400   0.96380   Biso      1.000     C          -0.02338  
         C3        1.0000    0.96280   0.34500   0.93840   Biso      1.000     C          -0.241186           
         C4        1.0000    0.86990   0.28120   0.87040   Biso      1.000     C          0.649868  
         C5        1.0000    0.02890   0.27910   0.66660   Biso      1.000     C          0.724514  
         C6        1.0000    0.88910   0.15420   0.55360   Biso      1.000     C          -0.019942           
         C7        1.0000    0.83440   0.12950   0.47940   Biso      1.000     C          -0.047054           
         C8        1.0000    0.16310   0.36160   0.36960   Biso      1.000     C          0.671806  
         C9        1.0000    0.72420   0.03340   0.44460   Biso      1.000     C          -0.226491           
         C10       1.0000    0.53930   0.50020   0.03620   Biso      1.000     C          -0.023036           
         C11       1.0000    0.53720   0.40660   0.06160   Biso      1.000     C          -0.240538           
         C12       1.0000    0.63010   0.41080   0.12960   Biso      1.000     C          0.649925  
         C13       1.0000    0.52130   0.66510   0.40840   Biso      1.000     C          -0.280237           
         C14       1.0000    0.61090   0.60060   0.44640   Biso      1.000     C          -0.019472           
         C15       1.0000    0.66560   0.65010   0.52060   Biso      1.000     C          -0.04616  
         C16       1.0000    0.66310   0.00800   0.36960   Biso      1.000     C          0.673522  
         C17       1.0000    0.77580   0.58880   0.55540   Biso      1.000     C          -0.225392           
         C18       1.0000    0.22420   0.41120   0.44460   Biso      1.000     C          -0.225427           
         C19       1.0000    0.38910   0.39940   0.55360   Biso      1.000     C          -0.019514           
         C20       1.0000    0.03930   0.53600   0.03620   Biso      1.000     C          -0.02338  
         C21       1.0000    0.03720   0.65500   0.06160   Biso      1.000     C          -0.241186           
         C22       1.0000    0.13010   0.71880   0.12960   Biso      1.000     C          0.649868  
         C23       1.0000    0.97110   0.72090   0.33340   Biso      1.000     C          0.724514  
         C24       1.0000    0.02130   0.74330   0.40840   Biso      1.000     C          -0.279811           
         C25       1.0000    0.11090   0.84580   0.44640   Biso      1.000     C          -0.019941           
         C26       1.0000    0.33440   0.34990   0.47940   Biso      1.000     C          -0.046121           
         C27       1.0000    0.16560   0.87050   0.52060   Biso      1.000     C          -0.047053           
         C28       1.0000    0.33690   0.99200   0.63040   Biso      1.000     C          0.673522  
         C29       1.0000    0.46070   0.49980   0.96380   Biso      1.000     C          -0.023036           
         C30       1.0000    0.46280   0.59340   0.93840   Biso      1.000     C          -0.240538           
         C31       1.0000    0.36990   0.58920   0.87040   Biso      1.000     C          0.649925  
         C32       1.0000    0.52890   0.38750   0.66660   Biso      1.000     C          0.725397  
         C33       1.0000    0.47870   0.33490   0.59160   Biso      1.000     C          -0.280201           
         C34       1.0000    0.27580   0.96660   0.55540   Biso      1.000     C          -0.226491           
         C35       1.0000    0.83690   0.63840   0.63040   Biso      1.000     C          0.671803  
         C36       1.0000    0.47110   0.61250   0.33340   Biso      1.000     C          0.7254    
         H1        1.0000    0.46900   0.90990   0.16980   Biso      1.000     H          0.338909  
         H2        1.0000    0.90650   0.50920   0.93540   Biso      1.000     H          0.106016  
         H3        1.0000    0.02570   0.29830   0.96420   Biso      1.000     H          0.128684  
         H4        1.0000    0.01110   0.31680   0.56980   Biso      1.000     H          0.13769   
         H5        1.0000    0.85930   0.09430   0.57580   Biso      1.000     H          0.096339  
         H6        1.0000    0.39400   0.03400   0.18400   Biso      1.000     H          0.418201  
         H7        1.0000    0.68270   0.97860   0.46880   Biso      1.000     H          0.127263  
         H8        1.0000    0.53100   0.09010   0.83020   Biso      1.000     H          0.338909  
         H9        1.0000    0.89400   0.15000   0.18400   Biso      1.000     H          0.418706  
         H10       1.0000    0.59350   0.57380   0.06460   Biso      1.000     H          0.105948  
         H11       1.0000    0.47430   0.33410   0.03580   Biso      1.000     H          0.127494  
         H12       1.0000    0.48890   0.74700   0.43020   Biso      1.000     H          0.136848  
         H13       1.0000    0.64070   0.51850   0.42420   Biso      1.000     H          0.096291  
         H14       1.0000    0.62110   0.72830   0.54480   Biso      1.000     H          0.114198  
         H15       1.0000    0.81730   0.50980   0.53120   Biso      1.000     H          0.126963  
         H16       1.0000    0.96900   0.25990   0.16980   Biso      1.000     H          0.339153  
         H17       1.0000    0.60600   0.96600   0.81600   Biso      1.000     H          0.418201  
         H18       1.0000    0.87890   0.18350   0.45520   Biso      1.000     H          0.11524   
         H19       1.0000    0.37890   0.27170   0.45520   Biso      1.000     H          0.114195  
         H20       1.0000    0.18270   0.49020   0.46880   Biso      1.000     H          0.126966  
         H21       1.0000    0.97430   0.70170   0.03580   Biso      1.000     H          0.128684  
         H22       1.0000    0.98890   0.68320   0.43020   Biso      1.000     H          0.13769   
         H23       1.0000    0.14070   0.90570   0.42420   Biso      1.000     H          0.096339  
         H24       1.0000    0.12110   0.81650   0.54480   Biso      1.000     H          0.11524   
         H25       1.0000    0.31730   0.02140   0.53120   Biso      1.000     H          0.127263  
         H26       1.0000    0.09350   0.49080   0.06460   Biso      1.000     H          0.106016  
         H27       1.0000    0.03100   0.74010   0.83020   Biso      1.000     H          0.339153  
         H28       1.0000    0.40650   0.42620   0.93540   Biso      1.000     H          0.105948  
         H29       1.0000    0.52570   0.66590   0.96420   Biso      1.000     H          0.127494  
         H30       1.0000    0.51110   0.25300   0.56980   Biso      1.000     H          0.136845  
         H31       1.0000    0.35930   0.48150   0.57580   Biso      1.000     H          0.096294  
         H32       1.0000    0.10600   0.85000   0.81600   Biso      1.000     H          0.418705  
         O1        1.0000    0.53020   0.01400   0.78880   Biso      1.000     O          -0.668763           
         O2        1.0000    0.24790   0.27063   0.33106   Biso      1.000     O          -0.580689           
         O3        1.0000    0.01990   0.41758   0.35016   Biso      1.000     O          -0.698273           
         O4        1.0000    0.48220   0.49843   0.69766   Biso      1.000     O          -0.652848           
         O5        1.0000    0.12250   0.37571   0.69682   Biso      1.000     O          -0.63956  
         O6        1.0000    0.27360   0.49576   0.83632   Biso      1.000     O          -0.61307  
         O7        1.0000    0.25210   0.93957   0.66894   Biso      1.000     O          -0.581464           
         O8        1.0000    0.03020   0.77480   0.78880   Biso      1.000     O          -0.669528           
         O9        1.0000    0.22640   0.65944   0.16368   Biso      1.000     O          -0.613264           
         O10       1.0000    0.37750   0.67889   0.30318   Biso      1.000     O          -0.639976           
         O11       1.0000    0.01780   0.80077   0.30234   Biso      1.000     O          -0.653251           
         O12       1.0000    0.48010   0.06742   0.64984   Biso      1.000     O          -0.698746           
         O13       1.0000    0.88140   0.16562   0.84664   Biso      1.000     O          -0.688753           
         O14       1.0000    0.38140   0.68102   0.84664   Biso      1.000     O          -0.688754           
         O15       1.0000    0.77360   0.34056   0.83632   Biso      1.000     O          -0.613264           
         O16       1.0000    0.46980   0.98600   0.21120   Biso      1.000     O          -0.668763           
         O17       1.0000    0.98220   0.19923   0.69766   Biso      1.000     O          -0.653251           
         O18       1.0000    0.51990   0.93258   0.35016   Biso      1.000     O          -0.698745           
         O19       1.0000    0.74790   0.06043   0.33106   Biso      1.000     O          -0.581464           
         O20       1.0000    0.96980   0.22520   0.21120   Biso      1.000     O          -0.669528           
         O21       1.0000    0.61860   0.31898   0.15336   Biso      1.000     O          -0.688754           
         O22       1.0000    0.72640   0.50424   0.16368   Biso      1.000     O          -0.61307  
         O23       1.0000    0.87750   0.62429   0.30318   Biso      1.000     O          -0.63956  
         O24       1.0000    0.51780   0.50157   0.30234   Biso      1.000     O          -0.652848           
         O25       1.0000    0.98010   0.58242   0.64984   Biso      1.000     O          -0.698273           
         O26       1.0000    0.75210   0.72937   0.66894   Biso      1.000     O          -0.580688           
         O27       1.0000    0.11860   0.83438   0.15336   Biso      1.000     O          -0.688753           
         O28       1.0000    0.62250   0.32111   0.69682   Biso      1.000     O          -0.639977           
         Y1        1.0000    0.31776   0.83827   0.25722   Biso      1.000     Y          1.865459  
         Y2        1.0000    0.18224   0.58105   0.74278   Biso      1.000     Y          1.865203  
         Y3        1.0000    0.68224   0.16173   0.74278   Biso      1.000     Y          1.865459  
         Y4        1.0000    0.81776   0.41895   0.25722   Biso      1.000     Y          1.865203 