
##########################################################################
#               Crystallographic Information Format file
#               Produced by PyCifRW module
#
#  This is a CIF file.  CIF has been adopted by the International
#  Union of Crystallography as the standard for data archiving and
#  transmission.
#
#  For information on this file format, follow the CIF links at
#  http://www.iucr.org
##########################################################################

data_image0

_cell_length_a                          6.767
_cell_length_b                          11.231
_cell_length_c                          19.7425
_cell_angle_alpha                       106.525
_cell_angle_beta                        90.9203
_cell_angle_gamma                       90
_symmetry_space_group_name_H-M          'P 1'
_symmetry_int_tables_number             1
loop_
  _symmetry_equiv_pos_as_xyz
         'x, y, z' 
loop_
  _atom_site_label
  _atom_site_occupancy
  _atom_site_fract_x
  _atom_site_fract_y
  _atom_site_fract_z
  _atom_site_thermal_displace_type
  _atom_site_B_iso_or_equiv
  _atom_site_type_symbol
  _atom_site_charge
         C1        1.0000    0.83530   0.62738   0.47816   Biso      1.000     C          -0.043106           
         C2        1.0000    0.71830   0.53358   0.44476   Biso      1.000     C          -0.21279299999999998          
         C3        1.0000    0.89530   0.64855   0.55190   Biso      1.000     C          -0.028664999999999996         
         C4        1.0000    0.98540   0.75500   0.58940   Biso      1.000     C          -0.277656           
         C5        1.0000    0.03770   0.77682   0.66484   Biso      1.000     C          0.753088  
         C6        1.0000    0.96120   0.96639   0.96518   Biso      1.000     C          -0.022008           
         C7        1.0000    0.96510   0.84462   0.93864   Biso      1.000     C          -0.220886           
         C8        1.0000    0.65720   0.50798   0.36936   Biso      1.000     C          0.678413  
         C9        1.0000    0.87240   0.78068   0.86976   Biso      1.000     C          0.663295  
         C10       1.0000    0.62760   0.91092   0.13024   Biso      1.000     C          0.66237   
         C11       1.0000    0.53490   0.90598   0.06136   Biso      1.000     C          -0.218795           
         C12       1.0000    0.53880   0.00121   0.03482   Biso      1.000     C          -0.022278           
         C13       1.0000    0.46230   0.11198   0.33516   Biso      1.000     C          0.752423  
         C14       1.0000    0.51460   0.16560   0.41060   Biso      1.000     C          -0.276873           
         C15       1.0000    0.60470   0.09665   0.44810   Biso      1.000     C          -0.027576999999999997         
         C16       1.0000    0.84280   0.13862   0.63064   Biso      1.000     C          0.680509  
         C17       1.0000    0.37240   0.08908   0.86976   Biso      1.000     C          0.66237   
         C18       1.0000    0.46510   0.09402   0.93864   Biso      1.000     C          -0.218795           
         C19       1.0000    0.46120   0.99879   0.96518   Biso      1.000     C          -0.022278           
         C20       1.0000    0.34280   0.49202   0.63064   Biso      1.000     C          0.678416  
         C21       1.0000    0.28170   0.46642   0.55524   Biso      1.000     C          -0.212835           
         C22       1.0000    0.16470   0.37262   0.52184   Biso      1.000     C          -0.043063           
         C23       1.0000    0.10470   0.35145   0.44810   Biso      1.000     C          -0.028669999999999998         
         C24       1.0000    0.01460   0.24500   0.41060   Biso      1.000     C          -0.277656           
         C25       1.0000    0.96230   0.22318   0.33516   Biso      1.000     C          0.753088  
         C26       1.0000    0.03880   0.03361   0.03482   Biso      1.000     C          -0.022007           
         C27       1.0000    0.03490   0.15538   0.06136   Biso      1.000     C          -0.220886           
         C28       1.0000    0.12760   0.21932   0.13024   Biso      1.000     C          0.663295  
         C29       1.0000    0.15720   0.86138   0.36936   Biso      1.000     C          0.680513  
         C30       1.0000    0.21830   0.91118   0.44476   Biso      1.000     C          -0.21278000000000002          
         C31       1.0000    0.33530   0.85078   0.47816   Biso      1.000     C          -0.044827           
         C32       1.0000    0.39530   0.90335   0.55190   Biso      1.000     C          -0.027601           
         C33       1.0000    0.48540   0.83440   0.58940   Biso      1.000     C          -0.276855           
         C34       1.0000    0.53770   0.88802   0.66484   Biso      1.000     C          0.752421  
         C35       1.0000    0.66470   0.14922   0.52184   Biso      1.000     C          -0.044869           
         C36       1.0000    0.78170   0.08882   0.55524   Biso      1.000     C          -0.21274  
         Er1       1.0000    0.80984   0.92025   0.25904   Biso      1.000     Er          2.162407  
         Er2       1.0000    0.19016   0.07975   0.74096   Biso      1.000     Er          2.162408  
         Er3       1.0000    0.69016   0.66121   0.74096   Biso      1.000     Er          2.1624    
         Er4       1.0000    0.30984   0.33879   0.25904   Biso      1.000     Er          2.1624    
         H1        1.0000    0.32790   0.51900   0.53000   Biso      1.000     H          0.129246  
         H2        1.0000    0.47160   0.83320   0.03580   Biso      1.000     H          0.139023  
         H3        1.0000    0.59490   0.07500   0.06240   Biso      1.000     H          0.108045  
         H4        1.0000    0.48510   0.24830   0.43280   Biso      1.000     H          0.14238699999999999           
         H5        1.0000    0.62900   0.01310   0.42620   Biso      1.000     H          0.09640499999999999           
         H6        1.0000    0.61960   0.22760   0.54620   Biso      1.000     H          0.12021300000000001           
         H7        1.0000    0.82790   0.01100   0.53000   Biso      1.000     H          0.12945299999999998           
         H8        1.0000    0.02840   0.79740   0.96420   Biso      1.000     H          0.13988   
         H9        1.0000    0.90510   0.01260   0.93760   Biso      1.000     H          0.108438  
         H10       1.0000    0.01490   0.81550   0.56720   Biso      1.000     H          0.14263199999999998           
         H11       1.0000    0.87100   0.58690   0.57380   Biso      1.000     H          0.096888  
         H12       1.0000    0.11960   0.31860   0.54620   Biso      1.000     H          0.11962300000000001           
         H13       1.0000    0.67210   0.48100   0.47000   Biso      1.000     H          0.129244  
         H14       1.0000    0.88040   0.68140   0.45380   Biso      1.000     H          0.119625  
         H15       1.0000    0.98510   0.18450   0.43280   Biso      1.000     H          0.14263199999999998           
         H16       1.0000    0.09490   0.98740   0.06240   Biso      1.000     H          0.108438  
         H17       1.0000    0.97160   0.20260   0.03580   Biso      1.000     H          0.13988   
         H18       1.0000    0.17210   0.98900   0.47000   Biso      1.000     H          0.129455  
         H19       1.0000    0.12900   0.41310   0.42620   Biso      1.000     H          0.096889  
         H20       1.0000    0.38040   0.77240   0.45380   Biso      1.000     H          0.12021   
         H21       1.0000    0.37100   0.98690   0.57380   Biso      1.000     H          0.096407  
         H22       1.0000    0.51490   0.75170   0.56720   Biso      1.000     H          0.14238599999999998           
         H23       1.0000    0.40510   0.92500   0.93760   Biso      1.000     H          0.108045  
         H24       1.0000    0.52840   0.16680   0.96420   Biso      1.000     H          0.139022  
         O1        1.0000    0.27730   0.99412   0.83524   Biso      1.000     O          -0.680979           
         O2        1.0000    0.01100   0.29970   0.30220   Biso      1.000     O          -0.702294           
         O3        1.0000    0.11360   0.33505   0.15530   Biso      1.000     O          -0.706484           
         O4        1.0000    0.22270   0.15888   0.16476   Biso      1.000     O          -0.6815060000000001           
         O5        1.0000    0.24280   0.77038   0.33016   Biso      1.000     O          -0.608839           
         O6        1.0000    0.00920   0.91572   0.35124   Biso      1.000     O          -0.800044           
         O7        1.0000    0.62980   0.81840   0.69300   Biso      1.000     O          -0.69123  
         O8        1.0000    0.48900   0.99750   0.69780   Biso      1.000     O          -0.7024090000000001           
         O9        1.0000    0.38640   0.17975   0.84470   Biso      1.000     O          -0.706587           
         O10       1.0000    0.87020   0.12540   0.30700   Biso      1.000     O          -0.691467           
         O11       1.0000    0.74280   0.55978   0.33016   Biso      1.000     O          -0.608006           
         O12       1.0000    0.75720   0.22962   0.66984   Biso      1.000     O          -0.608838           
         O13       1.0000    0.12980   0.87460   0.69300   Biso      1.000     O          -0.691467           
         O14       1.0000    0.98900   0.70030   0.69780   Biso      1.000     O          -0.702294           
         O15       1.0000    0.88640   0.66495   0.84470   Biso      1.000     O          -0.706484           
         O16       1.0000    0.77730   0.84112   0.83524   Biso      1.000     O          -0.6815060000000001           
         O17       1.0000    0.99080   0.08428   0.64876   Biso      1.000     O          -0.800044           
         O18       1.0000    0.37020   0.18160   0.30700   Biso      1.000     O          -0.69123  
         O19       1.0000    0.51100   0.00250   0.30220   Biso      1.000     O          -0.7024090000000001           
         O20       1.0000    0.61360   0.82025   0.15530   Biso      1.000     O          -0.706587           
         O21       1.0000    0.72270   0.00588   0.16476   Biso      1.000     O          -0.680979           
         O22       1.0000    0.49080   0.56448   0.64876   Biso      1.000     O          -0.799049           
         O23       1.0000    0.50920   0.43552   0.35124   Biso      1.000     O          -0.799049           
         O24       1.0000    0.25720   0.44022   0.66984   Biso      1.000     O          -0.608006 