
##########################################################################
#               Crystallographic Information Format file
#               Produced by PyCifRW module
#
#  This is a CIF file.  CIF has been adopted by the International
#  Union of Crystallography as the standard for data archiving and
#  transmission.
#
#  For information on this file format, follow the CIF links at
#  http://www.iucr.org
##########################################################################

data_image0

_cell_length_a                          14.143
_cell_length_b                          15.7178
_cell_length_c                          16.0889
_cell_angle_alpha                       90
_cell_angle_beta                        90
_cell_angle_gamma                       90
_symmetry_space_group_name_H-M          'P 1'
_symmetry_int_tables_number             1
loop_
  _symmetry_equiv_pos_as_xyz
         'x, y, z' 
loop_
  _atom_site_label
  _atom_site_occupancy
  _atom_site_fract_x
  _atom_site_fract_y
  _atom_site_fract_z
  _atom_site_thermal_displace_type
  _atom_site_B_iso_or_equiv
  _atom_site_type_symbol
  _atom_site_charge
         C1        1.0000    0.34350   0.22590   0.77630   Biso      1.000     C          0.190302  
         C2        1.0000    0.24360   0.00210   0.47390   Biso      1.000     C          -0.014701           
         C3        1.0000    0.11180   0.94840   0.51750   Biso      1.000     C          0.180695  
         C4        1.0000    0.25280   0.98920   0.55780   Biso      1.000     C          -0.025518           
         C5        1.0000    0.32520   0.00310   0.61980   Biso      1.000     C          0.595544  
         C6        1.0000    0.54640   0.18340   0.18020   Biso      1.000     C          0.574601  
         C7        1.0000    0.47810   0.32530   0.23950   Biso      1.000     C          -0.053334           
         C8        1.0000    0.55400   0.38750   0.23230   Biso      1.000     C          0.601451  
         C9        1.0000    0.30600   0.03640   0.40750   Biso      1.000     C          0.592218  
         C10       1.0000    0.47440   0.23990   0.21790   Biso      1.000     C          -0.006257           
         C11       1.0000    0.19400   0.96360   0.90750   Biso      1.000     C          0.592218  
         C12       1.0000    0.25640   0.99790   0.97390   Biso      1.000     C          -0.014701           
         C13       1.0000    0.38820   0.05160   0.01750   Biso      1.000     C          0.180695  
         C14       1.0000    0.24720   0.01080   0.05780   Biso      1.000     C          -0.025518           
         C15       1.0000    0.17480   0.99690   0.11980   Biso      1.000     C          0.595544  
         C16       1.0000    0.97440   0.26010   0.78210   Biso      1.000     C          -0.006258           
         C17       1.0000    0.05400   0.11250   0.76770   Biso      1.000     C          0.601451  
         C18       1.0000    0.34350   0.27410   0.27630   Biso      1.000     C          0.190302  
         C19       1.0000    0.97810   0.17470   0.76050   Biso      1.000     C          -0.053334           
         C20       1.0000    0.15650   0.72590   0.77630   Biso      1.000     C          0.190302  
         C21       1.0000    0.94600   0.61250   0.73230   Biso      1.000     C          0.601451  
         C22       1.0000    0.75640   0.50210   0.02610   Biso      1.000     C          -0.014701           
         C23       1.0000    0.88820   0.44840   0.98250   Biso      1.000     C          0.180695  
         C24       1.0000    0.74720   0.48920   0.94220   Biso      1.000     C          -0.025518           
         C25       1.0000    0.67480   0.50310   0.88020   Biso      1.000     C          0.595544  
         C26       1.0000    0.45360   0.68340   0.31980   Biso      1.000     C          0.574601  
         C27       1.0000    0.52190   0.82530   0.26050   Biso      1.000     C          -0.053334           
         C28       1.0000    0.44600   0.88750   0.26770   Biso      1.000     C          0.601451  
         C29       1.0000    0.02560   0.76010   0.71790   Biso      1.000     C          -0.006258           
         C30       1.0000    0.52560   0.73990   0.28210   Biso      1.000     C          -0.006257           
         C31       1.0000    0.80600   0.46360   0.59250   Biso      1.000     C          0.592218  
         C32       1.0000    0.74360   0.49790   0.52610   Biso      1.000     C          -0.014701           
         C33       1.0000    0.61180   0.55160   0.48250   Biso      1.000     C          0.180695  
         C34       1.0000    0.75280   0.51080   0.44220   Biso      1.000     C          -0.025518           
         C35       1.0000    0.82520   0.49690   0.38020   Biso      1.000     C          0.595544  
         C36       1.0000    0.95360   0.81660   0.68020   Biso      1.000     C          0.574601  
         C37       1.0000    0.02190   0.67470   0.73950   Biso      1.000     C          -0.053334           
         C38       1.0000    0.65650   0.77410   0.22370   Biso      1.000     C          0.190302  
         C39       1.0000    0.04640   0.31660   0.81980   Biso      1.000     C          0.574601  
         C40       1.0000    0.82520   0.00310   0.88020   Biso      1.000     C          0.595545  
         C41       1.0000    0.75280   0.98920   0.94220   Biso      1.000     C          -0.025524           
         C42       1.0000    0.25640   0.50210   0.47390   Biso      1.000     C          -0.014701           
         C43       1.0000    0.19400   0.53640   0.40750   Biso      1.000     C          0.592218  
         C44       1.0000    0.47440   0.26010   0.71790   Biso      1.000     C          -0.006258           
         C45       1.0000    0.55400   0.11250   0.73230   Biso      1.000     C          0.601451  
         C46       1.0000    0.47810   0.17470   0.73950   Biso      1.000     C          -0.053334           
         C47       1.0000    0.54640   0.31660   0.68020   Biso      1.000     C          0.574601  
         C48       1.0000    0.32520   0.49690   0.11980   Biso      1.000     C          0.595545  
         C49       1.0000    0.38820   0.44840   0.51750   Biso      1.000     C          0.180695  
         C50       1.0000    0.25280   0.51080   0.05780   Biso      1.000     C          -0.025524           
         C51       1.0000    0.24360   0.49790   0.97390   Biso      1.000     C          -0.014695           
         C52       1.0000    0.30600   0.46360   0.90750   Biso      1.000     C          0.592218  
         C53       1.0000    0.15650   0.77410   0.27630   Biso      1.000     C          0.190302  
         C54       1.0000    0.02560   0.73990   0.21790   Biso      1.000     C          -0.006258           
         C55       1.0000    0.94600   0.88750   0.23230   Biso      1.000     C          0.601451  
         C56       1.0000    0.02190   0.82530   0.23950   Biso      1.000     C          -0.053334           
         C57       1.0000    0.95360   0.68340   0.18020   Biso      1.000     C          0.574601  
         C58       1.0000    0.11180   0.55160   0.01750   Biso      1.000     C          0.180695  
         C59       1.0000    0.24720   0.48920   0.55780   Biso      1.000     C          -0.025518           
         C60       1.0000    0.17480   0.50310   0.61980   Biso      1.000     C          0.595544  
         C61       1.0000    0.04640   0.18340   0.31980   Biso      1.000     C          0.574601  
         C62       1.0000    0.61180   0.94840   0.98250   Biso      1.000     C          0.180695  
         C63       1.0000    0.74360   0.00210   0.02610   Biso      1.000     C          -0.014695           
         C64       1.0000    0.80600   0.03640   0.09250   Biso      1.000     C          0.592218  
         C65       1.0000    0.65650   0.72590   0.72370   Biso      1.000     C          0.190302  
         C66       1.0000    0.52560   0.76010   0.78210   Biso      1.000     C          -0.006258           
         C67       1.0000    0.44600   0.61250   0.76770   Biso      1.000     C          0.601451  
         C68       1.0000    0.52190   0.67470   0.76050   Biso      1.000     C          -0.053334           
         C69       1.0000    0.45360   0.81660   0.81980   Biso      1.000     C          0.574601  
         C70       1.0000    0.67480   0.99690   0.38020   Biso      1.000     C          0.595545  
         C71       1.0000    0.74720   0.01080   0.44220   Biso      1.000     C          -0.025524           
         C72       1.0000    0.88820   0.05160   0.48250   Biso      1.000     C          0.180695  
         C73       1.0000    0.75640   0.99790   0.52610   Biso      1.000     C          -0.014695           
         C74       1.0000    0.69400   0.96360   0.59250   Biso      1.000     C          0.592218  
         C75       1.0000    0.84350   0.27410   0.22370   Biso      1.000     C          0.190302  
         C76       1.0000    0.97440   0.23990   0.28210   Biso      1.000     C          -0.006258           
         C77       1.0000    0.05400   0.38750   0.26770   Biso      1.000     C          0.601451  
         C78       1.0000    0.97810   0.32530   0.26050   Biso      1.000     C          -0.053334           
         C79       1.0000    0.69400   0.53640   0.09250   Biso      1.000     C          0.592218  
         C80       1.0000    0.84350   0.22590   0.72370   Biso      1.000     C          0.190302  
         Cd1       1.0000    0.35462   0.07033   0.22131   Biso      1.000     Cd          0.920431  
         Cd2       1.0000    0.00000   0.50000   0.50000   Biso      1.000     Cd          1.138812  
         Cd3       1.0000    0.50000   0.00000   0.50000   Biso      1.000     Cd          1.138812  
         Cd4       1.0000    0.00000   0.00000   0.00000   Biso      1.000     Cd          1.138812  
         Cd5       1.0000    0.37985   0.48652   0.31101   Biso      1.000     Cd          0.943029  
         Cd6       1.0000    0.14538   0.57033   0.22131   Biso      1.000     Cd          0.920431  
         Cd7       1.0000    0.12015   0.51348   0.81101   Biso      1.000     Cd          0.943029  
         Cd8       1.0000    0.35462   0.42967   0.72131   Biso      1.000     Cd          0.920431  
         Cd9       1.0000    0.62015   0.98652   0.18899   Biso      1.000     Cd          0.943029  
         Cd10      1.0000    0.50000   0.50000   0.00000   Biso      1.000     Cd          1.138812  
         Cd11      1.0000    0.85462   0.07033   0.27869   Biso      1.000     Cd          0.920431  
         Cd12      1.0000    0.64538   0.92967   0.77869   Biso      1.000     Cd          0.920431  
         Cd13      1.0000    0.62015   0.51348   0.68899   Biso      1.000     Cd          0.943029  
         Cd14      1.0000    0.85462   0.42967   0.77869   Biso      1.000     Cd          0.920431  
         Cd15      1.0000    0.87985   0.48652   0.18899   Biso      1.000     Cd          0.943029  
         Cd16      1.0000    0.64538   0.57033   0.27869   Biso      1.000     Cd          0.920431  
         Cd17      1.0000    0.37985   0.01348   0.81101   Biso      1.000     Cd          0.943029  
         Cd18      1.0000    0.14538   0.92967   0.72131   Biso      1.000     Cd          0.920431  
         Cd19      1.0000    0.12015   0.98652   0.31101   Biso      1.000     Cd          0.943029  
         Cd20      1.0000    0.87985   0.01348   0.68899   Biso      1.000     Cd          0.943029  
         H1        1.0000    0.87600   0.81640   0.17700   Biso      1.000     H          0.392394  
         H2        1.0000    0.44940   0.07330   0.01880   Biso      1.000     H          0.098255  
         H3        1.0000    0.21730   0.77060   0.29790   Biso      1.000     H          0.097969  
         H4        1.0000    0.62400   0.31640   0.17700   Biso      1.000     H          0.392394  
         H5        1.0000    0.05060   0.57330   0.01880   Biso      1.000     H          0.098255  
         H6        1.0000    0.62400   0.18360   0.67700   Biso      1.000     H          0.392394  
         H7        1.0000    0.28270   0.22940   0.79790   Biso      1.000     H          0.097969  
         H8        1.0000    0.44940   0.42670   0.51880   Biso      1.000     H          0.098255  
         H9        1.0000    0.12400   0.31640   0.32300   Biso      1.000     H          0.392394  
         H10       1.0000    0.78270   0.27060   0.20210   Biso      1.000     H          0.097969  
         H11       1.0000    0.94940   0.07330   0.48120   Biso      1.000     H          0.098255  
         H12       1.0000    0.28270   0.27060   0.29790   Biso      1.000     H          0.097969  
         H13       1.0000    0.71730   0.72940   0.70210   Biso      1.000     H          0.097969  
         H14       1.0000    0.55060   0.92670   0.98120   Biso      1.000     H          0.098255  
         H15       1.0000    0.37600   0.68360   0.82300   Biso      1.000     H          0.392394  
         H16       1.0000    0.78270   0.22940   0.70210   Biso      1.000     H          0.09797   
         H17       1.0000    0.94940   0.42670   0.98120   Biso      1.000     H          0.098255  
         H18       1.0000    0.37600   0.81640   0.32300   Biso      1.000     H          0.392394  
         H19       1.0000    0.71730   0.77060   0.20210   Biso      1.000     H          0.097969  
         H20       1.0000    0.55060   0.57330   0.48120   Biso      1.000     H          0.098255  
         H21       1.0000    0.87600   0.68360   0.67700   Biso      1.000     H          0.392394  
         H22       1.0000    0.21730   0.72940   0.79790   Biso      1.000     H          0.097969  
         H23       1.0000    0.05060   0.92670   0.51880   Biso      1.000     H          0.098255  
         H24       1.0000    0.12400   0.18360   0.82300   Biso      1.000     H          0.392394  
         N1        1.0000    0.61120   0.79190   0.75780   Biso      1.000     N          -0.313584           
         N2        1.0000    0.60490   0.65380   0.72380   Biso      1.000     N          -0.332274           
         N3        1.0000    0.83300   0.04520   0.41450   Biso      1.000     N          -0.334684           
         N4        1.0000    0.84630   0.02350   0.55230   Biso      1.000     N          -0.334785           
         N5        1.0000    0.88880   0.20810   0.25780   Biso      1.000     N          -0.313584           
         N6        1.0000    0.89510   0.34620   0.22380   Biso      1.000     N          -0.332274           
         N7        1.0000    0.10490   0.84620   0.27620   Biso      1.000     N          -0.332274           
         N8        1.0000    0.34630   0.47650   0.44770   Biso      1.000     N          -0.334784           
         N9        1.0000    0.39510   0.15380   0.77620   Biso      1.000     N          -0.332274           
         N10       1.0000    0.16700   0.54520   0.08550   Biso      1.000     N          -0.334684           
         N11       1.0000    0.15370   0.52350   0.94770   Biso      1.000     N          -0.334785           
         N12       1.0000    0.11120   0.70810   0.24220   Biso      1.000     N          -0.313584           
         N13       1.0000    0.65370   0.97650   0.05230   Biso      1.000     N          -0.334785           
         N14       1.0000    0.33300   0.45480   0.58550   Biso      1.000     N          -0.334685           
         N15       1.0000    0.66700   0.95480   0.91450   Biso      1.000     N          -0.334684           
         N16       1.0000    0.38880   0.29190   0.74220   Biso      1.000     N          -0.313584           
         N17       1.0000    0.88880   0.29190   0.75780   Biso      1.000     N          -0.313584           
         N18       1.0000    0.89510   0.15380   0.72380   Biso      1.000     N          -0.332274           
         N19       1.0000    0.34630   0.02350   0.94770   Biso      1.000     N          -0.334784           
         N20       1.0000    0.38880   0.20810   0.24220   Biso      1.000     N          -0.313584           
         N21       1.0000    0.39510   0.34620   0.27620   Biso      1.000     N          -0.332274           
         N22       1.0000    0.16700   0.95480   0.58550   Biso      1.000     N          -0.334685           
         N23       1.0000    0.15370   0.97650   0.44770   Biso      1.000     N          -0.334784           
         N24       1.0000    0.11120   0.79190   0.74220   Biso      1.000     N          -0.313584           
         N25       1.0000    0.33300   0.04520   0.08550   Biso      1.000     N          -0.334685           
         N26       1.0000    0.66700   0.54520   0.41450   Biso      1.000     N          -0.334685           
         N27       1.0000    0.65370   0.52350   0.55230   Biso      1.000     N          -0.334784           
         N28       1.0000    0.61120   0.70810   0.25780   Biso      1.000     N          -0.313584           
         N29       1.0000    0.60490   0.84620   0.22380   Biso      1.000     N          -0.332274           
         N30       1.0000    0.83300   0.45480   0.91450   Biso      1.000     N          -0.334685           
         N31       1.0000    0.10490   0.65380   0.77620   Biso      1.000     N          -0.332274           
         N32       1.0000    0.84630   0.47650   0.05230   Biso      1.000     N          -0.334784           
         O1        1.0000    0.13160   0.36640   0.30250   Biso      1.000     O          -0.46605  
         O2        1.0000    0.60900   0.94180   0.57990   Biso      1.000     O          -0.581819           
         O3        1.0000    0.73130   0.95360   0.66330   Biso      1.000     O          -0.519283           
         O4        1.0000    0.59690   0.96080   0.39780   Biso      1.000     O          -0.591277           
         O5        1.0000    0.69280   0.02450   0.30800   Biso      1.000     O          -0.530661           
         O6        1.0000    0.45920   0.54040   0.73620   Biso      1.000     O          -0.512525           
         O7        1.0000    0.47370   0.89330   0.82680   Biso      1.000     O          -0.5633   
         O8        1.0000    0.36840   0.63360   0.80250   Biso      1.000     O          -0.46605  
         O9        1.0000    0.89100   0.05820   0.07990   Biso      1.000     O          -0.581819           
         O10       1.0000    0.76870   0.04640   0.16330   Biso      1.000     O          -0.519283           
         O11       1.0000    0.90310   0.03920   0.89780   Biso      1.000     O          -0.591277           
         O12       1.0000    0.02630   0.10670   0.32680   Biso      1.000     O          -0.5633   
         O13       1.0000    0.37550   0.78410   0.84140   Biso      1.000     O          -0.576244           
         O14       1.0000    0.12450   0.21590   0.34140   Biso      1.000     O          -0.576244           
         O15       1.0000    0.52630   0.39330   0.67320   Biso      1.000     O          -0.5633   
         O16       1.0000    0.19280   0.47550   0.69200   Biso      1.000     O          -0.53066  
         O17       1.0000    0.09690   0.53920   0.60220   Biso      1.000     O          -0.591277           
         O18       1.0000    0.23130   0.54640   0.33670   Biso      1.000     O          -0.519283           
         O19       1.0000    0.10900   0.55820   0.42010   Biso      1.000     O          -0.581819           
         O20       1.0000    0.63160   0.13360   0.69750   Biso      1.000     O          -0.46605  
         O21       1.0000    0.80720   0.97550   0.80800   Biso      1.000     O          -0.530661           
         O22       1.0000    0.62450   0.28410   0.65860   Biso      1.000     O          -0.576244           
         O23       1.0000    0.54080   0.04040   0.76380   Biso      1.000     O          -0.512525           
         O24       1.0000    0.30720   0.52450   0.19200   Biso      1.000     O          -0.530661           
         O25       1.0000    0.40310   0.46080   0.10220   Biso      1.000     O          -0.591277           
         O26       1.0000    0.26870   0.45360   0.83670   Biso      1.000     O          -0.519283           
         O27       1.0000    0.39100   0.44180   0.92010   Biso      1.000     O          -0.581819           
         O28       1.0000    0.86840   0.86640   0.19750   Biso      1.000     O          -0.46605  
         O29       1.0000    0.97370   0.60670   0.17320   Biso      1.000     O          -0.5633   
         O30       1.0000    0.04080   0.45960   0.23620   Biso      1.000     O          -0.512525           
         O31       1.0000    0.04080   0.04040   0.73620   Biso      1.000     O          -0.512525           
         O32       1.0000    0.45920   0.95960   0.23620   Biso      1.000     O          -0.512525           
         O33       1.0000    0.02630   0.39330   0.82680   Biso      1.000     O          -0.5633   
         O34       1.0000    0.87550   0.71590   0.15860   Biso      1.000     O          -0.576244           
         O35       1.0000    0.19280   0.02450   0.19200   Biso      1.000     O          -0.53066  
         O36       1.0000    0.09690   0.96080   0.10220   Biso      1.000     O          -0.591277           
         O37       1.0000    0.23130   0.95360   0.83670   Biso      1.000     O          -0.519283           
         O38       1.0000    0.10900   0.94180   0.92010   Biso      1.000     O          -0.581819           
         O39       1.0000    0.63160   0.36640   0.19750   Biso      1.000     O          -0.46605  
         O40       1.0000    0.52630   0.10670   0.17320   Biso      1.000     O          -0.5633   
         O41       1.0000    0.62450   0.21590   0.15860   Biso      1.000     O          -0.576244           
         O42       1.0000    0.54080   0.45960   0.26380   Biso      1.000     O          -0.512525           
         O43       1.0000    0.30720   0.97550   0.69200   Biso      1.000     O          -0.53066  
         O44       1.0000    0.40310   0.03920   0.60220   Biso      1.000     O          -0.591277           
         O45       1.0000    0.26870   0.04640   0.33670   Biso      1.000     O          -0.519283           
         O46       1.0000    0.39100   0.05820   0.42010   Biso      1.000     O          -0.581819           
         O47       1.0000    0.86840   0.63360   0.69750   Biso      1.000     O          -0.46605  
         O48       1.0000    0.97370   0.89330   0.67320   Biso      1.000     O          -0.5633   
         O49       1.0000    0.87550   0.78410   0.65860   Biso      1.000     O          -0.576244           
         O50       1.0000    0.95920   0.54040   0.76380   Biso      1.000     O          -0.512525           
         O51       1.0000    0.80720   0.52450   0.30800   Biso      1.000     O          -0.53066  
         O52       1.0000    0.90310   0.46080   0.39780   Biso      1.000     O          -0.591277           
         O53       1.0000    0.76870   0.45360   0.66330   Biso      1.000     O          -0.519283           
         O54       1.0000    0.89100   0.44180   0.57990   Biso      1.000     O          -0.581819           
         O55       1.0000    0.36840   0.86640   0.30250   Biso      1.000     O          -0.46605  
         O56       1.0000    0.47370   0.60670   0.32680   Biso      1.000     O          -0.5633   
         O57       1.0000    0.37550   0.71590   0.34140   Biso      1.000     O          -0.576244           
         O58       1.0000    0.69280   0.47550   0.80800   Biso      1.000     O          -0.53066  
         O59       1.0000    0.59690   0.53920   0.89780   Biso      1.000     O          -0.591277           
         O60       1.0000    0.73130   0.54640   0.16330   Biso      1.000     O          -0.519283           
         O61       1.0000    0.60900   0.55820   0.07990   Biso      1.000     O          -0.581819           
         O62       1.0000    0.13160   0.13360   0.80250   Biso      1.000     O          -0.46605  
         O63       1.0000    0.12450   0.28410   0.84140   Biso      1.000     O          -0.576244           
         O64       1.0000    0.95920   0.95960   0.26380   Biso      1.000     O          -0.512525 