
##########################################################################
#               Crystallographic Information Format file
#               Produced by PyCifRW module
#
#  This is a CIF file.  CIF has been adopted by the International
#  Union of Crystallography as the standard for data archiving and
#  transmission.
#
#  For information on this file format, follow the CIF links at
#  http://www.iucr.org
##########################################################################

data_image0

_cell_length_a                          14.836
_cell_length_b                          6.6844
_cell_length_c                          4.363
_cell_angle_alpha                       90
_cell_angle_beta                        93.28
_cell_angle_gamma                       90
_symmetry_space_group_name_H-M          'P 1'
_symmetry_int_tables_number             1
loop_
  _symmetry_equiv_pos_as_xyz
         'x, y, z' 
loop_
  _atom_site_label
  _atom_site_occupancy
  _atom_site_fract_x
  _atom_site_fract_y
  _atom_site_fract_z
  _atom_site_thermal_displace_type
  _atom_site_B_iso_or_equiv
  _atom_site_type_symbol
  _atom_site_charge
         C1        1.0000    0.46130   0.50000   0.87950   Biso      1.000     C          -0.437309           
         C2        1.0000    0.96130   0.00000   0.87950   Biso      1.000     C          -0.43731000000000003          
         C3        1.0000    0.53870   0.50000   0.12050   Biso      1.000     C          -0.43731000000000003          
         C4        1.0000    0.03870   0.00000   0.12050   Biso      1.000     C          -0.437309           
         Cu1       1.0000    0.25000   0.75000   0.50000   Biso      1.000     Cu          1.0392569999999999  
         Cu2       1.0000    0.75000   0.75000   0.50000   Biso      1.000     Cu          1.0392540000000001  
         Cu3       1.0000    0.75000   0.25000   0.50000   Biso      1.000     Cu          1.0392549999999998  
         Cu4       1.0000    0.25000   0.25000   0.50000   Biso      1.000     Cu          1.039256  
         H1        1.0000    0.03430   0.87730   0.22800   Biso      1.000     H          0.176677  
         H2        1.0000    0.46570   0.37730   0.77200   Biso      1.000     H          0.176677  
         H3        1.0000    0.53430   0.37730   0.22800   Biso      1.000     H          0.176678  
         H4        1.0000    0.96570   0.87730   0.77200   Biso      1.000     H          0.176678  
         H5        1.0000    0.03430   0.12270   0.22800   Biso      1.000     H          0.176677  
         H6        1.0000    0.46570   0.62270   0.77200   Biso      1.000     H          0.176677  
         H7        1.0000    0.53430   0.62270   0.22800   Biso      1.000     H          0.176678  
         H8        1.0000    0.96570   0.12270   0.77200   Biso      1.000     H          0.176677  
         O1        1.0000    0.78260   0.00000   0.74330   Biso      1.000     O          -0.7903279999999999           
         O2        1.0000    0.65880   0.68970   0.78520   Biso      1.000     O          -0.74662  
         O3        1.0000    0.71740   0.50000   0.25670   Biso      1.000     O          -0.790327           
         O4        1.0000    0.34120   0.31030   0.21480   Biso      1.000     O          -0.746624           
         O5        1.0000    0.21740   0.00000   0.25670   Biso      1.000     O          -0.79033  
         O6        1.0000    0.84120   0.18970   0.21480   Biso      1.000     O          -0.746622           
         O7        1.0000    0.34120   0.68970   0.21480   Biso      1.000     O          -0.746625           
         O8        1.0000    0.28260   0.50000   0.74330   Biso      1.000     O          -0.790329           
         O9        1.0000    0.65880   0.31030   0.78520   Biso      1.000     O          -0.74662  
         O10       1.0000    0.84120   0.81030   0.21480   Biso      1.000     O          -0.74662  
         O11       1.0000    0.15880   0.81030   0.78520   Biso      1.000     O          -0.746626           
         O12       1.0000    0.15880   0.18970   0.78520   Biso      1.000     O          -0.746624           
         P1        1.0000    0.64930   0.50000   0.97170   Biso      1.000     P          1.32827   
         P2        1.0000    0.85070   0.00000   0.02830   Biso      1.000     P          1.328272  
         P3        1.0000    0.35070   0.50000   0.02830   Biso      1.000     P          1.328273  
         P4        1.0000    0.14930   0.00000   0.97170   Biso      1.000     P          1.328275 