
##########################################################################
#               Crystallographic Information Format file
#               Produced by PyCifRW module
#
#  This is a CIF file.  CIF has been adopted by the International
#  Union of Crystallography as the standard for data archiving and
#  transmission.
#
#  For information on this file format, follow the CIF links at
#  http://www.iucr.org
##########################################################################

data_image0

_cell_length_a                          10.9909
_cell_length_b                          10.9909
_cell_length_c                          10.991
_cell_angle_alpha                       90
_cell_angle_beta                        90
_cell_angle_gamma                       90
_symmetry_space_group_name_H-M          'P 1'
_symmetry_int_tables_number             1
loop_
  _symmetry_equiv_pos_as_xyz
         'x, y, z' 
loop_
  _atom_site_label
  _atom_site_occupancy
  _atom_site_fract_x
  _atom_site_fract_y
  _atom_site_fract_z
  _atom_site_thermal_displace_type
  _atom_site_B_iso_or_equiv
  _atom_site_type_symbol
  _atom_site_charge
         C1        1.0000    0.71780   0.29750   0.08170   Biso      1.000     C          0.098758  
         C2        1.0000    0.17290   0.78330   0.89180   Biso      1.000     C          -0.315904           
         C3        1.0000    0.28220   0.70250   0.08170   Biso      1.000     C          0.098755  
         C4        1.0000    0.24230   0.85380   0.96590   Biso      1.000     C          0.111624  
         C5        1.0000    0.16210   0.66200   0.91160   Biso      1.000     C          0.446944  
         C6        1.0000    0.78450   0.37660   0.01500   Biso      1.000     C          -0.300603           
         C7        1.0000    0.82710   0.21670   0.89180   Biso      1.000     C          -0.315907           
         C8        1.0000    0.29750   0.71780   0.58170   Biso      1.000     C          0.098758  
         C9        1.0000    0.75770   0.14620   0.96590   Biso      1.000     C          0.111625  
         C10       1.0000    0.83790   0.33800   0.91160   Biso      1.000     C          0.446967  
         C11       1.0000    0.62340   0.78450   0.98500   Biso      1.000     C          -0.30062  
         C12       1.0000    0.78330   0.82710   0.10820   Biso      1.000     C          -0.315907           
         C13       1.0000    0.70250   0.71780   0.91830   Biso      1.000     C          0.098776  
         C14       1.0000    0.85380   0.75770   0.03410   Biso      1.000     C          0.111625  
         C15       1.0000    0.66200   0.83790   0.08840   Biso      1.000     C          0.446969  
         C16       1.0000    0.37660   0.21550   0.98500   Biso      1.000     C          -0.30062  
         C17       1.0000    0.21670   0.17290   0.10820   Biso      1.000     C          -0.315907           
         C18       1.0000    0.29750   0.28220   0.91830   Biso      1.000     C          0.098776  
         C19       1.0000    0.14620   0.24230   0.03410   Biso      1.000     C          0.111625  
         C20       1.0000    0.33800   0.16210   0.08840   Biso      1.000     C          0.446969  
         C21       1.0000    0.78450   0.62340   0.48500   Biso      1.000     C          -0.30062  
         C22       1.0000    0.82710   0.78330   0.60820   Biso      1.000     C          -0.315907           
         C23       1.0000    0.71780   0.70250   0.41830   Biso      1.000     C          0.098776  
         C24       1.0000    0.75770   0.85380   0.53410   Biso      1.000     C          0.111625  
         C25       1.0000    0.83790   0.66200   0.58840   Biso      1.000     C          0.446969  
         C26       1.0000    0.21550   0.37660   0.48500   Biso      1.000     C          -0.30062  
         C27       1.0000    0.17290   0.21670   0.60820   Biso      1.000     C          -0.315907           
         C28       1.0000    0.28220   0.29750   0.41830   Biso      1.000     C          0.098776  
         C29       1.0000    0.24230   0.14620   0.53410   Biso      1.000     C          0.111625  
         C30       1.0000    0.16210   0.33800   0.58840   Biso      1.000     C          0.446969  
         C31       1.0000    0.21550   0.62340   0.01500   Biso      1.000     C          -0.300578           
         C32       1.0000    0.37660   0.78450   0.51500   Biso      1.000     C          -0.300603           
         C33       1.0000    0.21670   0.82710   0.39180   Biso      1.000     C          -0.315907           
         C34       1.0000    0.66200   0.16210   0.41160   Biso      1.000     C          0.446935  
         C35       1.0000    0.85380   0.24230   0.46590   Biso      1.000     C          0.111617  
         C36       1.0000    0.70250   0.28220   0.58170   Biso      1.000     C          0.098754  
         C37       1.0000    0.78330   0.17290   0.39180   Biso      1.000     C          -0.31589  
         C38       1.0000    0.62340   0.21550   0.51500   Biso      1.000     C          -0.300577           
         C39       1.0000    0.33800   0.83790   0.41160   Biso      1.000     C          0.446968  
         C40       1.0000    0.14620   0.75770   0.46590   Biso      1.000     C          0.111625  
         H1        1.0000    0.18130   0.86770   0.32660   Biso      1.000     H          0.133978  
         H2        1.0000    0.54320   0.79340   0.95970   Biso      1.000     H          0.135994  
         H3        1.0000    0.75050   0.06450   0.94500   Biso      1.000     H          0.068505  
         H4        1.0000    0.67910   0.32960   0.14970   Biso      1.000     H          0.070753  
         H5        1.0000    0.86770   0.18130   0.82660   Biso      1.000     H          0.133978  
         H6        1.0000    0.13230   0.81870   0.82660   Biso      1.000     H          0.133978  
         H7        1.0000    0.24950   0.93550   0.94500   Biso      1.000     H          0.068505  
         H8        1.0000    0.32090   0.67040   0.14970   Biso      1.000     H          0.070753  
         H9        1.0000    0.81870   0.86770   0.17340   Biso      1.000     H          0.133978  
         H10       1.0000    0.20660   0.54320   0.04030   Biso      1.000     H          0.135991  
         H11       1.0000    0.79340   0.45680   0.04030   Biso      1.000     H          0.135993  
         H12       1.0000    0.45680   0.79340   0.54030   Biso      1.000     H          0.135993  
         H13       1.0000    0.67040   0.67910   0.85030   Biso      1.000     H          0.070751  
         H14       1.0000    0.45680   0.20660   0.95970   Biso      1.000     H          0.135994  
         H15       1.0000    0.32960   0.67910   0.64970   Biso      1.000     H          0.070753  
         H16       1.0000    0.24950   0.06450   0.55500   Biso      1.000     H          0.068505  
         H17       1.0000    0.54320   0.20660   0.54030   Biso      1.000     H          0.135991  
         H18       1.0000    0.81870   0.13230   0.32660   Biso      1.000     H          0.133977  
         H19       1.0000    0.67040   0.32090   0.64970   Biso      1.000     H          0.070753  
         H20       1.0000    0.93550   0.24950   0.44500   Biso      1.000     H          0.068505  
         H21       1.0000    0.32090   0.32960   0.35030   Biso      1.000     H          0.070751  
         H22       1.0000    0.93550   0.75050   0.05500   Biso      1.000     H          0.068505  
         H23       1.0000    0.13230   0.18130   0.67340   Biso      1.000     H          0.133978  
         H24       1.0000    0.75050   0.93550   0.55500   Biso      1.000     H          0.068505  
         H25       1.0000    0.67910   0.67040   0.35030   Biso      1.000     H          0.070751  
         H26       1.0000    0.86770   0.81870   0.67340   Biso      1.000     H          0.133978  
         H27       1.0000    0.79340   0.54320   0.45970   Biso      1.000     H          0.135994  
         H28       1.0000    0.06450   0.24950   0.05500   Biso      1.000     H          0.068505  
         H29       1.0000    0.32960   0.32090   0.85030   Biso      1.000     H          0.070751  
         H30       1.0000    0.18130   0.13230   0.17340   Biso      1.000     H          0.133978  
         H31       1.0000    0.20660   0.45680   0.45970   Biso      1.000     H          0.135994  
         H32       1.0000    0.06450   0.75050   0.44500   Biso      1.000     H          0.068505  
         Li1       1.0000    0.91840   0.58920   0.83640   Biso      1.000     Li          0.761414  
         Li2       1.0000    0.58920   0.91840   0.33640   Biso      1.000     Li          0.761414  
         Li3       1.0000    0.41080   0.08160   0.33640   Biso      1.000     Li          0.761415  
         Li4       1.0000    0.91840   0.41080   0.66360   Biso      1.000     Li          0.761415  
         Li5       1.0000    0.08160   0.58920   0.66360   Biso      1.000     Li          0.761415  
         Li6       1.0000    0.41080   0.91840   0.16360   Biso      1.000     Li          0.761415  
         Li7       1.0000    0.58920   0.08160   0.16360   Biso      1.000     Li          0.761415  
         Li8       1.0000    0.08160   0.41080   0.83640   Biso      1.000     Li          0.761415  
         N1        1.0000    0.81920   0.29880   0.56160   Biso      1.000     N          -0.38869  
         N2        1.0000    0.18080   0.70120   0.56160   Biso      1.000     N          -0.388692           
         N3        1.0000    0.29880   0.18080   0.43840   Biso      1.000     N          -0.388694           
         N4        1.0000    0.70120   0.81920   0.43840   Biso      1.000     N          -0.388694           
         N5        1.0000    0.81920   0.70120   0.93840   Biso      1.000     N          -0.388694           
         N6        1.0000    0.70120   0.18080   0.06160   Biso      1.000     N          -0.388692           
         N7        1.0000    0.29880   0.81920   0.06160   Biso      1.000     N          -0.388691           
         N8        1.0000    0.18080   0.29880   0.93840   Biso      1.000     N          -0.388694           
         O1        1.0000    0.41060   0.90370   0.34140   Biso      1.000     O          -0.822792           
         O2        1.0000    0.09630   0.58940   0.84140   Biso      1.000     O          -0.82279  
         O3        1.0000    0.90370   0.41060   0.84140   Biso      1.000     O          -0.822792           
         O4        1.0000    0.58940   0.90370   0.15860   Biso      1.000     O          -0.822792           
         O5        1.0000    0.41060   0.09630   0.15860   Biso      1.000     O          -0.822792           
         O6        1.0000    0.90370   0.58940   0.65860   Biso      1.000     O          -0.822792           
         O7        1.0000    0.09630   0.41060   0.65860   Biso      1.000     O          -0.822792           
         O8        1.0000    0.58940   0.09630   0.34140   Biso      1.000     O          -0.82279 