
##########################################################################
#               Crystallographic Information Format file
#               Produced by PyCifRW module
#
#  This is a CIF file.  CIF has been adopted by the International
#  Union of Crystallography as the standard for data archiving and
#  transmission.
#
#  For information on this file format, follow the CIF links at
#  http://www.iucr.org
##########################################################################

data_image0

_cell_length_a                          9.5868
_cell_length_b                          10.1255
_cell_length_c                          20.2095
_cell_angle_alpha                       103.146
_cell_angle_beta                        90
_cell_angle_gamma                       90
_symmetry_space_group_name_H-M          'P 1'
_symmetry_int_tables_number             1
loop_
  _symmetry_equiv_pos_as_xyz
         'x, y, z' 
loop_
  _atom_site_label
  _atom_site_occupancy
  _atom_site_fract_x
  _atom_site_fract_y
  _atom_site_fract_z
  _atom_site_thermal_displace_type
  _atom_site_B_iso_or_equiv
  _atom_site_type_symbol
  _atom_site_charge
         C1        1.0000    0.73830   0.05002   0.95112   Biso      1.000     C          -0.12473599999999999          
         C2        1.0000    0.19070   0.97450   0.11040   Biso      1.000     C          -0.036126           
         C3        1.0000    0.05610   0.92670   0.11240   Biso      1.000     C          -0.098522           
         C4        1.0000    0.99290   0.85380   0.05430   Biso      1.000     C          -0.08851  
         C5        1.0000    0.06300   0.82840   0.99360   Biso      1.000     C          -0.083873           
         C6        1.0000    0.19790   0.87512   0.99012   Biso      1.000     C          -0.022080000000000002         
         C7        1.0000    0.26170   0.94998   0.04888   Biso      1.000     C          -0.124732           
         C8        1.0000    0.27470   0.84541   0.92411   Biso      1.000     C          0.534567  
         C9        1.0000    0.25880   0.05384   0.17444   Biso      1.000     C          0.603176  
         C10       1.0000    0.70230   0.53525   0.73895   Biso      1.000     C          0.592534  
         C11       1.0000    0.63900   0.41176   0.75256   Biso      1.000     C          -0.008937           
         C12       1.0000    0.94900   0.02591   0.65121   Biso      1.000     C          0.59175   
         C13       1.0000    0.53650   0.38730   0.79610   Biso      1.000     C          -0.001818           
         C14       1.0000    0.61390   0.19500   0.73730   Biso      1.000     C          0.212956  
         C15       1.0000    0.69070   0.52550   0.38960   Biso      1.000     C          -0.036123           
         C16       1.0000    0.55610   0.57330   0.38760   Biso      1.000     C          -0.09851900000000001          
         C17       1.0000    0.49290   0.64620   0.44570   Biso      1.000     C          -0.088509           
         C18       1.0000    0.56300   0.67160   0.50640   Biso      1.000     C          -0.08387599999999999          
         C19       1.0000    0.69790   0.62488   0.50988   Biso      1.000     C          -0.022078           
         C20       1.0000    0.76170   0.55002   0.45112   Biso      1.000     C          -0.124734           
         C21       1.0000    0.77470   0.65459   0.57589   Biso      1.000     C          0.534602  
         C22       1.0000    0.75880   0.44616   0.32556   Biso      1.000     C          0.603173  
         C23       1.0000    0.20230   0.96475   0.76105   Biso      1.000     C          0.59253   
         C24       1.0000    0.44900   0.47409   0.84879   Biso      1.000     C          0.5917600000000001  
         C25       1.0000    0.11390   0.30500   0.76270   Biso      1.000     C          0.212956  
         C26       1.0000    0.80930   0.02550   0.88960   Biso      1.000     C          -0.036122           
         C27       1.0000    0.94390   0.07330   0.88760   Biso      1.000     C          -0.098521           
         C28       1.0000    0.88610   0.69500   0.23730   Biso      1.000     C          0.212957  
         C29       1.0000    0.05100   0.97409   0.34879   Biso      1.000     C          0.5917600000000001  
         C30       1.0000    0.96350   0.88730   0.29610   Biso      1.000     C          -0.001818           
         C31       1.0000    0.86100   0.91176   0.25256   Biso      1.000     C          -0.008937           
         C32       1.0000    0.79770   0.03525   0.23895   Biso      1.000     C          0.592533  
         C33       1.0000    0.24120   0.55384   0.67444   Biso      1.000     C          0.603174  
         C34       1.0000    0.22530   0.34541   0.42411   Biso      1.000     C          0.534576  
         C35       1.0000    0.23830   0.44998   0.54888   Biso      1.000     C          -0.12473499999999998          
         C36       1.0000    0.30210   0.37512   0.49012   Biso      1.000     C          -0.022078999999999998         
         C37       1.0000    0.43700   0.32840   0.49360   Biso      1.000     C          -0.083875           
         C38       1.0000    0.50710   0.35380   0.55430   Biso      1.000     C          -0.088511           
         C39       1.0000    0.44390   0.42670   0.61240   Biso      1.000     C          -0.09852000000000001          
         C40       1.0000    0.30930   0.47450   0.61040   Biso      1.000     C          -0.036124           
         C41       1.0000    0.38610   0.80500   0.26270   Biso      1.000     C          0.212957  
         C42       1.0000    0.55100   0.52591   0.15121   Biso      1.000     C          0.591747  
         C43       1.0000    0.46350   0.61270   0.20390   Biso      1.000     C          -0.0018170000000000003        
         C44       1.0000    0.36100   0.58824   0.24744   Biso      1.000     C          -0.008935           
         C45       1.0000    0.29770   0.46475   0.26105   Biso      1.000     C          0.59253   
         C46       1.0000    0.74120   0.94616   0.82556   Biso      1.000     C          0.603182  
         C47       1.0000    0.72530   0.15459   0.07589   Biso      1.000     C          0.5346    
         C48       1.0000    0.80210   0.12488   0.00988   Biso      1.000     C          -0.022078           
         C49       1.0000    0.93700   0.17160   0.00640   Biso      1.000     C          -0.08387599999999999          
         C50       1.0000    0.00710   0.14620   0.94570   Biso      1.000     C          -0.088506           
         C51       1.0000    0.13900   0.08824   0.74744   Biso      1.000     C          -0.008935           
         C52       1.0000    0.03650   0.11270   0.70390   Biso      1.000     C          -0.001818           
         Eu1       1.0000    0.42941   0.76883   0.79843   Biso      1.000     Eu          1.367869  
         Eu2       1.0000    0.57059   0.23116   0.20157   Biso      1.000     Eu          1.367879  
         Eu3       1.0000    0.07059   0.26883   0.29843   Biso      1.000     Eu          1.367867  
         Eu4       1.0000    0.92941   0.73116   0.70157   Biso      1.000     Eu          1.367883  
         H1        1.0000    0.14840   0.48340   0.54680   Biso      1.000     H          0.131694  
         H2        1.0000    0.87430   0.60220   0.22040   Biso      1.000     H          0.108168  
         H3        1.0000    0.00780   0.94390   0.15330   Biso      1.000     H          0.096985  
         H4        1.0000    0.90250   0.82180   0.05630   Biso      1.000     H          0.104348  
         H5        1.0000    0.01960   0.77950   0.95450   Biso      1.000     H          0.118746  
         H6        1.0000    0.35160   0.98340   0.04680   Biso      1.000     H          0.131693  
         H7        1.0000    0.62570   0.10220   0.72040   Biso      1.000     H          0.108168  
         H8        1.0000    0.50780   0.55610   0.34670   Biso      1.000     H          0.096986  
         H9        1.0000    0.51960   0.72050   0.54550   Biso      1.000     H          0.118745  
         H10       1.0000    0.40250   0.67820   0.44370   Biso      1.000     H          0.104349  
         H11       1.0000    0.12570   0.39780   0.77960   Biso      1.000     H          0.108168  
         H12       1.0000    0.99220   0.05610   0.84670   Biso      1.000     H          0.096986  
         H13       1.0000    0.09750   0.17820   0.94370   Biso      1.000     H          0.104349  
         H14       1.0000    0.98040   0.22050   0.04550   Biso      1.000     H          0.118746  
         H15       1.0000    0.64840   0.01660   0.95320   Biso      1.000     H          0.131694  
         H16       1.0000    0.37430   0.89780   0.27960   Biso      1.000     H          0.10816700000000001           
         H17       1.0000    0.49220   0.44390   0.65330   Biso      1.000     H          0.096985  
         H18       1.0000    0.59750   0.32180   0.55630   Biso      1.000     H          0.10435   
         H19       1.0000    0.48040   0.27950   0.45450   Biso      1.000     H          0.118745  
         H20       1.0000    0.85160   0.51660   0.45320   Biso      1.000     H          0.131693  
         N1        1.0000    0.97840   0.74848   0.28568   Biso      1.000     N          -0.340285           
         N2        1.0000    0.47840   0.75152   0.21432   Biso      1.000     N          -0.34028800000000003          
         N3        1.0000    0.31300   0.71060   0.28420   Biso      1.000     N          -0.33505300000000005          
         N4        1.0000    0.02160   0.25152   0.71432   Biso      1.000     N          -0.340287           
         N5        1.0000    0.18700   0.21060   0.78420   Biso      1.000     N          -0.335052           
         N6        1.0000    0.81300   0.78940   0.21580   Biso      1.000     N          -0.335054           
         N7        1.0000    0.68700   0.28940   0.71580   Biso      1.000     N          -0.33505300000000005          
         N8        1.0000    0.52160   0.24848   0.78568   Biso      1.000     N          -0.34028400000000003          
         O1        1.0000    0.84810   0.14987   0.25917   Biso      1.000     O          -0.528983           
         O2        1.0000    0.96800   0.89891   0.63771   Biso      1.000     O          -0.5057649999999999           
         O3        1.0000    0.86200   0.08470   0.62200   Biso      1.000     O          -0.515621           
         O4        1.0000    0.78040   0.22787   0.12807   Biso      1.000     O          -0.467922           
         O5        1.0000    0.60280   0.10933   0.07913   Biso      1.000     O          -0.46451499999999996          
         O6        1.0000    0.61370   0.92087   0.82827   Biso      1.000     O          -0.54655  
         O7        1.0000    0.81440   0.91313   0.77263   Biso      1.000     O          -0.5793010000000001           
         O8        1.0000    0.68580   0.01485   0.20345   Biso      1.000     O          -0.597128           
         O9        1.0000    0.34810   0.35013   0.24083   Biso      1.000     O          -0.5289590000000001           
         O10       1.0000    0.53200   0.39891   0.13771   Biso      1.000     O          -0.505757           
         O11       1.0000    0.63800   0.58470   0.12200   Biso      1.000     O          -0.515621           
         O12       1.0000    0.28040   0.27213   0.37193   Biso      1.000     O          -0.46791499999999997          
         O13       1.0000    0.10280   0.39067   0.42087   Biso      1.000     O          -0.46447  
         O14       1.0000    0.11370   0.57913   0.67173   Biso      1.000     O          -0.546568           
         O15       1.0000    0.31440   0.58687   0.72737   Biso      1.000     O          -0.579279           
         O16       1.0000    0.31420   0.98515   0.79655   Biso      1.000     O          -0.597141           
         O17       1.0000    0.18580   0.48515   0.29655   Biso      1.000     O          -0.597141           
         O18       1.0000    0.15190   0.85013   0.74083   Biso      1.000     O          -0.528962           
         O19       1.0000    0.88630   0.42087   0.32827   Biso      1.000     O          -0.5465439999999999           
         O20       1.0000    0.03200   0.10109   0.36229   Biso      1.000     O          -0.505808           
         O21       1.0000    0.21960   0.77213   0.87193   Biso      1.000     O          -0.4679   
         O22       1.0000    0.39720   0.89067   0.92087   Biso      1.000     O          -0.464476           
         O23       1.0000    0.68560   0.41313   0.27263   Biso      1.000     O          -0.579295           
         O24       1.0000    0.18560   0.08687   0.22737   Biso      1.000     O          -0.579278           
         O25       1.0000    0.38630   0.07913   0.17173   Biso      1.000     O          -0.54657  
         O26       1.0000    0.81420   0.51485   0.70345   Biso      1.000     O          -0.597126           
         O27       1.0000    0.46800   0.60109   0.86229   Biso      1.000     O          -0.5058090000000001           
         O28       1.0000    0.36200   0.41530   0.87800   Biso      1.000     O          -0.515624           
         O29       1.0000    0.71960   0.72787   0.62807   Biso      1.000     O          -0.46791400000000005          
         O30       1.0000    0.89720   0.60933   0.57913   Biso      1.000     O          -0.464528           
         O31       1.0000    0.65190   0.64987   0.75917   Biso      1.000     O          -0.528983           
         O32       1.0000    0.13800   0.91530   0.37800   Biso      1.000     O          -0.515624           
         Zn1       1.0000    0.63871   0.80294   0.16367   Biso      1.000     Zn          0.8828799999999999  
         Zn2       1.0000    0.13871   0.69706   0.33633   Biso      1.000     Zn          0.882884  
         Zn3       1.0000    0.36129   0.19706   0.83633   Biso      1.000     Zn          0.882884  
         Zn4       1.0000    0.86129   0.30294   0.66367   Biso      1.000     Zn          0.8828799999999999 