
##########################################################################
#               Crystallographic Information Format file
#               Produced by PyCifRW module
#
#  This is a CIF file.  CIF has been adopted by the International
#  Union of Crystallography as the standard for data archiving and
#  transmission.
#
#  For information on this file format, follow the CIF links at
#  http://www.iucr.org
##########################################################################

data_image0

_cell_length_a                          9.5903
_cell_length_b                          10.1806
_cell_length_c                          20.2805
_cell_angle_alpha                       102.765
_cell_angle_beta                        90
_cell_angle_gamma                       90
_symmetry_space_group_name_H-M          'P 1'
_symmetry_int_tables_number             1
loop_
  _symmetry_equiv_pos_as_xyz
         'x, y, z' 
loop_
  _atom_site_label
  _atom_site_occupancy
  _atom_site_fract_x
  _atom_site_fract_y
  _atom_site_fract_z
  _atom_site_thermal_displace_type
  _atom_site_B_iso_or_equiv
  _atom_site_type_symbol
  _atom_site_charge
         C1        1.0000    0.74020   0.05111   0.95111   Biso      1.000     C          -0.11603599999999999          
         C2        1.0000    0.00920   0.14760   0.94600   Biso      1.000     C          -0.091697           
         C3        1.0000    0.94560   0.07550   0.88820   Biso      1.000     C          -0.104995           
         C4        1.0000    0.81180   0.02710   0.88990   Biso      1.000     C          -0.050782           
         C5        1.0000    0.11370   0.30370   0.76220   Biso      1.000     C          0.214806  
         C6        1.0000    0.95190   0.02695   0.65145   Biso      1.000     C          0.614488  
         C7        1.0000    0.03890   0.11316   0.70376   Biso      1.000     C          0.006097  
         C8        1.0000    0.14120   0.08824   0.74684   Biso      1.000     C          -0.012244           
         C9        1.0000    0.93800   0.17250   0.00650   Biso      1.000     C          -0.082101           
         C10       1.0000    0.20650   0.96707   0.76107   Biso      1.000     C          0.620958  
         C11       1.0000    0.77450   0.65454   0.57474   Biso      1.000     C          0.581862  
         C12       1.0000    0.75980   0.55111   0.45111   Biso      1.000     C          -0.11603599999999999          
         C13       1.0000    0.69600   0.62492   0.50922   Biso      1.000     C          -0.007815           
         C14       1.0000    0.56200   0.67250   0.50650   Biso      1.000     C          -0.082101           
         C15       1.0000    0.49080   0.64760   0.44600   Biso      1.000     C          -0.091697           
         C16       1.0000    0.55440   0.57550   0.38820   Biso      1.000     C          -0.104995           
         C17       1.0000    0.68820   0.52710   0.38990   Biso      1.000     C          -0.050782           
         C18       1.0000    0.75650   0.44908   0.32588   Biso      1.000     C          0.663357  
         C19       1.0000    0.61370   0.19630   0.73780   Biso      1.000     C          0.214806  
         C20       1.0000    0.80400   0.12492   0.00922   Biso      1.000     C          -0.007814           
         C21       1.0000    0.74350   0.94908   0.82588   Biso      1.000     C          0.663357  
         C22       1.0000    0.96110   0.88684   0.29624   Biso      1.000     C          0.006097  
         C23       1.0000    0.85880   0.91176   0.25316   Biso      1.000     C          -0.012244           
         C24       1.0000    0.79350   0.03293   0.23893   Biso      1.000     C          0.620958  
         C25       1.0000    0.24350   0.55092   0.67412   Biso      1.000     C          0.663357  
         C26       1.0000    0.22550   0.34546   0.42526   Biso      1.000     C          0.581862  
         C27       1.0000    0.24020   0.44889   0.54889   Biso      1.000     C          -0.11603599999999999          
         C28       1.0000    0.30400   0.37508   0.49078   Biso      1.000     C          -0.007815           
         C29       1.0000    0.72550   0.15454   0.07474   Biso      1.000     C          0.581861  
         C30       1.0000    0.43800   0.32750   0.49350   Biso      1.000     C          -0.082101           
         C31       1.0000    0.44560   0.42450   0.61180   Biso      1.000     C          -0.10499700000000001          
         C32       1.0000    0.31180   0.47290   0.61010   Biso      1.000     C          -0.050782           
         C33       1.0000    0.38630   0.80370   0.26220   Biso      1.000     C          0.21480700000000003           
         C34       1.0000    0.54810   0.52695   0.15145   Biso      1.000     C          0.6144890000000001  
         C35       1.0000    0.46110   0.61316   0.20376   Biso      1.000     C          0.006097  
         C36       1.0000    0.35880   0.58824   0.24684   Biso      1.000     C          -0.012244           
         C37       1.0000    0.29350   0.46707   0.26107   Biso      1.000     C          0.620958  
         C38       1.0000    0.50920   0.35240   0.55400   Biso      1.000     C          -0.091695           
         C39       1.0000    0.04810   0.97305   0.34855   Biso      1.000     C          0.6144890000000001  
         C40       1.0000    0.45190   0.47305   0.84855   Biso      1.000     C          0.614487  
         C41       1.0000    0.64120   0.41176   0.75316   Biso      1.000     C          -0.01225  
         C42       1.0000    0.53890   0.38684   0.79624   Biso      1.000     C          0.006103  
         C43       1.0000    0.18820   0.97290   0.11010   Biso      1.000     C          -0.050783999999999996         
         C44       1.0000    0.05440   0.92450   0.11180   Biso      1.000     C          -0.104994           
         C45       1.0000    0.99080   0.85240   0.05400   Biso      1.000     C          -0.091696           
         C46       1.0000    0.06200   0.82750   0.99350   Biso      1.000     C          -0.082101           
         C47       1.0000    0.88630   0.69630   0.23780   Biso      1.000     C          0.21480700000000003           
         C48       1.0000    0.25980   0.94889   0.04889   Biso      1.000     C          -0.11603599999999999          
         C49       1.0000    0.27450   0.84546   0.92526   Biso      1.000     C          0.581862  
         C50       1.0000    0.25650   0.05092   0.17412   Biso      1.000     C          0.663357  
         C51       1.0000    0.19600   0.87508   0.99078   Biso      1.000     C          -0.007815           
         C52       1.0000    0.70650   0.53293   0.73893   Biso      1.000     C          0.620959  
         H1        1.0000    0.00620   0.94080   0.15260   Biso      1.000     H          0.093749  
         H2        1.0000    0.90020   0.82080   0.05590   Biso      1.000     H          0.103585  
         H3        1.0000    0.01970   0.77860   0.95450   Biso      1.000     H          0.11854   
         H4        1.0000    0.34970   0.98200   0.04680   Biso      1.000     H          0.13719800000000001           
         H5        1.0000    0.62420   0.10420   0.72100   Biso      1.000     H          0.105406  
         H6        1.0000    0.50620   0.55920   0.34740   Biso      1.000     H          0.093749  
         H7        1.0000    0.40020   0.67920   0.44410   Biso      1.000     H          0.103585  
         H8        1.0000    0.84970   0.51800   0.45320   Biso      1.000     H          0.13719800000000001           
         H9        1.0000    0.12420   0.39580   0.77900   Biso      1.000     H          0.105406  
         H10       1.0000    0.51970   0.72140   0.54550   Biso      1.000     H          0.11854   
         H11       1.0000    0.09980   0.17920   0.94410   Biso      1.000     H          0.103585  
         H12       1.0000    0.99380   0.05920   0.84740   Biso      1.000     H          0.093749  
         H13       1.0000    0.15030   0.48200   0.54680   Biso      1.000     H          0.13719800000000001           
         H14       1.0000    0.48030   0.27860   0.45450   Biso      1.000     H          0.11854   
         H15       1.0000    0.59980   0.32080   0.55590   Biso      1.000     H          0.103585  
         H16       1.0000    0.87580   0.60420   0.22100   Biso      1.000     H          0.105406  
         H17       1.0000    0.37580   0.89580   0.27900   Biso      1.000     H          0.105406  
         H18       1.0000    0.65030   0.01800   0.95320   Biso      1.000     H          0.13719800000000001           
         H19       1.0000    0.98030   0.22140   0.04550   Biso      1.000     H          0.11854   
         H20       1.0000    0.49380   0.44080   0.65260   Biso      1.000     H          0.093749  
         N1        1.0000    0.52300   0.24954   0.78604   Biso      1.000     N          -0.3417   
         N2        1.0000    0.18780   0.21056   0.78376   Biso      1.000     N          -0.335921           
         N3        1.0000    0.02300   0.25046   0.71396   Biso      1.000     N          -0.3417   
         N4        1.0000    0.31220   0.71056   0.28376   Biso      1.000     N          -0.33592  
         N5        1.0000    0.47700   0.75046   0.21396   Biso      1.000     N          -0.34170100000000003          
         N6        1.0000    0.81220   0.78944   0.21624   Biso      1.000     N          -0.335921           
         N7        1.0000    0.97700   0.74954   0.28604   Biso      1.000     N          -0.3417   
         N8        1.0000    0.68780   0.28944   0.71624   Biso      1.000     N          -0.33592  
         Nd1       1.0000    0.43038   0.76885   0.79799   Biso      1.000     Nd          2.1244970000000003  
         Nd2       1.0000    0.06962   0.26885   0.29799   Biso      1.000     Nd          2.1244970000000003  
         Nd3       1.0000    0.56962   0.23115   0.20201   Biso      1.000     Nd          2.1244970000000003  
         Nd4       1.0000    0.93038   0.73115   0.70201   Biso      1.000     Nd          2.1244970000000003  
         O1        1.0000    0.15960   0.85158   0.74058   Biso      1.000     O          -0.6578189999999999           
         O2        1.0000    0.78110   0.22772   0.12672   Biso      1.000     O          -0.664471           
         O3        1.0000    0.60370   0.10788   0.07798   Biso      1.000     O          -0.6286109999999999           
         O4        1.0000    0.61730   0.92189   0.82889   Biso      1.000     O          -0.6699229999999999           
         O5        1.0000    0.81810   0.91751   0.77331   Biso      1.000     O          -0.719258           
         O6        1.0000    0.34040   0.35158   0.24058   Biso      1.000     O          -0.65782  
         O7        1.0000    0.18250   0.48947   0.29717   Biso      1.000     O          -0.646329           
         O8        1.0000    0.52840   0.40074   0.13704   Biso      1.000     O          -0.629988           
         O9        1.0000    0.28110   0.27228   0.37328   Biso      1.000     O          -0.664471           
         O10       1.0000    0.86350   0.08564   0.62224   Biso      1.000     O          -0.521691           
         O11       1.0000    0.10370   0.39212   0.42202   Biso      1.000     O          -0.6286109999999999           
         O12       1.0000    0.11730   0.57811   0.67111   Biso      1.000     O          -0.6699229999999999           
         O13       1.0000    0.31810   0.58249   0.72669   Biso      1.000     O          -0.719258           
         O14       1.0000    0.84040   0.14842   0.25942   Biso      1.000     O          -0.65782  
         O15       1.0000    0.68250   0.01053   0.20283   Biso      1.000     O          -0.6463300000000001           
         O16       1.0000    0.63650   0.58564   0.12224   Biso      1.000     O          -0.521692           
         O17       1.0000    0.97160   0.90074   0.63704   Biso      1.000     O          -0.629988           
         O18       1.0000    0.13650   0.91436   0.37776   Biso      1.000     O          -0.521691           
         O19       1.0000    0.02840   0.09926   0.36296   Biso      1.000     O          -0.629988           
         O20       1.0000    0.21890   0.77228   0.87328   Biso      1.000     O          -0.664471           
         O21       1.0000    0.39630   0.89212   0.92202   Biso      1.000     O          -0.6286109999999999           
         O22       1.0000    0.38270   0.07811   0.17111   Biso      1.000     O          -0.6699229999999999           
         O23       1.0000    0.18190   0.08249   0.22669   Biso      1.000     O          -0.719258           
         O24       1.0000    0.31750   0.98947   0.79717   Biso      1.000     O          -0.646329           
         O25       1.0000    0.81750   0.51053   0.70283   Biso      1.000     O          -0.646329           
         O26       1.0000    0.65960   0.64842   0.75942   Biso      1.000     O          -0.65782  
         O27       1.0000    0.36350   0.41436   0.87776   Biso      1.000     O          -0.521691           
         O28       1.0000    0.71890   0.72772   0.62672   Biso      1.000     O          -0.664471           
         O29       1.0000    0.89630   0.60788   0.57798   Biso      1.000     O          -0.6286109999999999           
         O30       1.0000    0.88270   0.42189   0.32889   Biso      1.000     O          -0.6699229999999999           
         O31       1.0000    0.68190   0.41751   0.27331   Biso      1.000     O          -0.719258           
         O32       1.0000    0.47160   0.59926   0.86296   Biso      1.000     O          -0.629988           
         Zn1       1.0000    0.86146   0.30099   0.66342   Biso      1.000     Zn          0.8968389999999999  
         Zn2       1.0000    0.36146   0.19901   0.83658   Biso      1.000     Zn          0.89684   
         Zn3       1.0000    0.13854   0.69901   0.33658   Biso      1.000     Zn          0.8968370000000001  
         Zn4       1.0000    0.63854   0.80099   0.16342   Biso      1.000     Zn          0.89684 