
##########################################################################
#               Crystallographic Information Format file
#               Produced by PyCifRW module
#
#  This is a CIF file.  CIF has been adopted by the International
#  Union of Crystallography as the standard for data archiving and
#  transmission.
#
#  For information on this file format, follow the CIF links at
#  http://www.iucr.org
##########################################################################

data_image0

_cell_length_a                          9.5831
_cell_length_b                          10.1045
_cell_length_c                          20.1735
_cell_angle_alpha                       103.262
_cell_angle_beta                        90
_cell_angle_gamma                       90
_symmetry_space_group_name_H-M          'P 1'
_symmetry_int_tables_number             1
loop_
  _symmetry_equiv_pos_as_xyz
         'x, y, z' 
loop_
  _atom_site_label
  _atom_site_occupancy
  _atom_site_fract_x
  _atom_site_fract_y
  _atom_site_fract_z
  _atom_site_thermal_displace_type
  _atom_site_B_iso_or_equiv
  _atom_site_type_symbol
  _atom_site_charge
         C1        1.0000    0.73830   0.04970   0.95110   Biso      1.000     C          -0.11283299999999999          
         C2        1.0000    0.19150   0.97520   0.11060   Biso      1.000     C          -0.05474299999999999          
         C3        1.0000    0.05590   0.92710   0.11240   Biso      1.000     C          -0.101862           
         C4        1.0000    0.99230   0.85490   0.05450   Biso      1.000     C          -0.09247799999999999          
         C5        1.0000    0.06220   0.82850   0.99340   Biso      1.000     C          -0.080803           
         C6        1.0000    0.19790   0.87570   0.99000   Biso      1.000     C          -0.010369           
         C7        1.0000    0.26170   0.95030   0.04890   Biso      1.000     C          -0.11283399999999999          
         C8        1.0000    0.27420   0.84440   0.92360   Biso      1.000     C          0.584953  
         C9        1.0000    0.25930   0.05430   0.17460   Biso      1.000     C          0.671072  
         C10       1.0000    0.70180   0.53630   0.73920   Biso      1.000     C          0.629867  
         C11       1.0000    0.63870   0.41170   0.75280   Biso      1.000     C          -0.015128999999999998         
         C12       1.0000    0.94840   0.02610   0.65170   Biso      1.000     C          0.61788   
         C13       1.0000    0.53650   0.38650   0.79540   Biso      1.000     C          0.004609  
         C14       1.0000    0.61480   0.19470   0.73710   Biso      1.000     C          0.209393  
         C15       1.0000    0.69150   0.52480   0.38940   Biso      1.000     C          -0.05474299999999999          
         C16       1.0000    0.55590   0.57290   0.38760   Biso      1.000     C          -0.101862           
         C17       1.0000    0.49230   0.64510   0.44550   Biso      1.000     C          -0.092477           
         C18       1.0000    0.56220   0.67150   0.50660   Biso      1.000     C          -0.080803           
         C19       1.0000    0.69790   0.62430   0.51000   Biso      1.000     C          -0.010369           
         C20       1.0000    0.76170   0.54970   0.45110   Biso      1.000     C          -0.11283399999999999          
         C21       1.0000    0.77420   0.65560   0.57640   Biso      1.000     C          0.584953  
         C22       1.0000    0.75930   0.44570   0.32540   Biso      1.000     C          0.671072  
         C23       1.0000    0.20180   0.96370   0.76080   Biso      1.000     C          0.629867  
         C24       1.0000    0.44840   0.47390   0.84830   Biso      1.000     C          0.61788   
         C25       1.0000    0.11480   0.30530   0.76290   Biso      1.000     C          0.209393  
         C26       1.0000    0.80850   0.02480   0.88940   Biso      1.000     C          -0.05474400000000001          
         C27       1.0000    0.94410   0.07290   0.88760   Biso      1.000     C          -0.10186100000000001          
         C28       1.0000    0.88520   0.69470   0.23710   Biso      1.000     C          0.209392  
         C29       1.0000    0.05160   0.97390   0.34830   Biso      1.000     C          0.617881  
         C30       1.0000    0.96350   0.88650   0.29540   Biso      1.000     C          0.0046    
         C31       1.0000    0.86130   0.91170   0.25280   Biso      1.000     C          -0.015121           
         C32       1.0000    0.79820   0.03630   0.23920   Biso      1.000     C          0.629866  
         C33       1.0000    0.24070   0.55430   0.67460   Biso      1.000     C          0.671072  
         C34       1.0000    0.22580   0.34440   0.42360   Biso      1.000     C          0.584954  
         C35       1.0000    0.23830   0.45030   0.54890   Biso      1.000     C          -0.11283299999999999          
         C36       1.0000    0.30210   0.37570   0.49000   Biso      1.000     C          -0.010369           
         C37       1.0000    0.43780   0.32850   0.49340   Biso      1.000     C          -0.080802           
         C38       1.0000    0.50770   0.35490   0.55450   Biso      1.000     C          -0.092484           
         C39       1.0000    0.44410   0.42710   0.61240   Biso      1.000     C          -0.10185599999999999          
         C40       1.0000    0.30850   0.47520   0.61060   Biso      1.000     C          -0.05474400000000001          
         C41       1.0000    0.38520   0.80530   0.26290   Biso      1.000     C          0.209392  
         C42       1.0000    0.55160   0.52610   0.15170   Biso      1.000     C          0.61788   
         C43       1.0000    0.46350   0.61350   0.20460   Biso      1.000     C          0.0046    
         C44       1.0000    0.36130   0.58830   0.24720   Biso      1.000     C          -0.015121           
         C45       1.0000    0.29820   0.46370   0.26080   Biso      1.000     C          0.629866  
         C46       1.0000    0.74070   0.94570   0.82540   Biso      1.000     C          0.671072  
         C47       1.0000    0.72580   0.15560   0.07640   Biso      1.000     C          0.584954  
         C48       1.0000    0.80210   0.12430   0.01000   Biso      1.000     C          -0.010369           
         C49       1.0000    0.93780   0.17150   0.00660   Biso      1.000     C          -0.080802           
         C50       1.0000    0.00770   0.14510   0.94550   Biso      1.000     C          -0.09247999999999999          
         C51       1.0000    0.13870   0.08830   0.74720   Biso      1.000     C          -0.015128999999999998         
         C52       1.0000    0.03650   0.11350   0.70460   Biso      1.000     C          0.004609  
         Gd1       1.0000    0.42944   0.76877   0.79855   Biso      1.000     Gd          2.086219  
         Gd2       1.0000    0.57056   0.23123   0.20145   Biso      1.000     Gd          2.086219  
         Gd3       1.0000    0.07056   0.26877   0.29855   Biso      1.000     Gd          2.086219  
         Gd4       1.0000    0.92944   0.73123   0.70145   Biso      1.000     Gd          2.086219  
         H1        1.0000    0.14830   0.48360   0.54680   Biso      1.000     H          0.137045  
         H2        1.0000    0.87270   0.60180   0.22020   Biso      1.000     H          0.10744400000000001           
         H3        1.0000    0.00770   0.94430   0.15350   Biso      1.000     H          0.092644  
         H4        1.0000    0.90160   0.82350   0.05650   Biso      1.000     H          0.10333800000000001           
         H5        1.0000    0.01870   0.77920   0.95430   Biso      1.000     H          0.11738699999999999           
         H6        1.0000    0.35170   0.98360   0.04680   Biso      1.000     H          0.137045  
         H7        1.0000    0.62730   0.10180   0.72020   Biso      1.000     H          0.10744400000000001           
         H8        1.0000    0.50770   0.55570   0.34650   Biso      1.000     H          0.092644  
         H9        1.0000    0.51870   0.72080   0.54570   Biso      1.000     H          0.11738699999999999           
         H10       1.0000    0.40160   0.67650   0.44350   Biso      1.000     H          0.10333800000000001           
         H11       1.0000    0.12730   0.39820   0.77980   Biso      1.000     H          0.10744400000000001           
         H12       1.0000    0.99230   0.05570   0.84650   Biso      1.000     H          0.092644  
         H13       1.0000    0.09840   0.17650   0.94350   Biso      1.000     H          0.10333800000000001           
         H14       1.0000    0.98130   0.22080   0.04570   Biso      1.000     H          0.11738699999999999           
         H15       1.0000    0.64830   0.01640   0.95320   Biso      1.000     H          0.137045  
         H16       1.0000    0.37270   0.89820   0.27980   Biso      1.000     H          0.10744400000000001           
         H17       1.0000    0.49230   0.44430   0.65350   Biso      1.000     H          0.092644  
         H18       1.0000    0.59840   0.32350   0.55650   Biso      1.000     H          0.10333900000000001           
         H19       1.0000    0.48130   0.27920   0.45430   Biso      1.000     H          0.11738699999999999           
         H20       1.0000    0.85170   0.51640   0.45320   Biso      1.000     H          0.137045  
         N1        1.0000    0.97820   0.74810   0.28580   Biso      1.000     N          -0.344022           
         N2        1.0000    0.47820   0.75190   0.21420   Biso      1.000     N          -0.344022           
         N3        1.0000    0.31310   0.71010   0.28420   Biso      1.000     N          -0.33352  
         N4        1.0000    0.02180   0.25190   0.71420   Biso      1.000     N          -0.344024           
         N5        1.0000    0.18690   0.21010   0.78420   Biso      1.000     N          -0.33352  
         N6        1.0000    0.81310   0.78990   0.21580   Biso      1.000     N          -0.33352  
         N7        1.0000    0.68690   0.28990   0.71580   Biso      1.000     N          -0.33352  
         N8        1.0000    0.52180   0.24810   0.78580   Biso      1.000     N          -0.344024           
         O1        1.0000    0.85010   0.15020   0.25930   Biso      1.000     O          -0.645704           
         O2        1.0000    0.96670   0.89874   0.63794   Biso      1.000     O          -0.632847           
         O3        1.0000    0.86180   0.08511   0.62201   Biso      1.000     O          -0.5208520000000001           
         O4        1.0000    0.78050   0.22812   0.12852   Biso      1.000     O          -0.649718           
         O5        1.0000    0.60290   0.10954   0.07944   Biso      1.000     O          -0.635772           
         O6        1.0000    0.61310   0.92045   0.82855   Biso      1.000     O          -0.673308           
         O7        1.0000    0.81390   0.91199   0.77249   Biso      1.000     O          -0.710799           
         O8        1.0000    0.68600   0.01643   0.20393   Biso      1.000     O          -0.647714           
         O9        1.0000    0.35010   0.34980   0.24070   Biso      1.000     O          -0.645704           
         O10       1.0000    0.53330   0.39874   0.13794   Biso      1.000     O          -0.632847           
         O11       1.0000    0.63820   0.58511   0.12201   Biso      1.000     O          -0.520853           
         O12       1.0000    0.28050   0.27188   0.37148   Biso      1.000     O          -0.649718           
         O13       1.0000    0.10290   0.39046   0.42056   Biso      1.000     O          -0.635772           
         O14       1.0000    0.11310   0.57955   0.67145   Biso      1.000     O          -0.673308           
         O15       1.0000    0.31390   0.58801   0.72751   Biso      1.000     O          -0.710799           
         O16       1.0000    0.31400   0.98357   0.79607   Biso      1.000     O          -0.647716           
         O17       1.0000    0.18600   0.48357   0.29607   Biso      1.000     O          -0.6477149999999999           
         O18       1.0000    0.14990   0.84980   0.74070   Biso      1.000     O          -0.645705           
         O19       1.0000    0.88690   0.42045   0.32855   Biso      1.000     O          -0.673308           
         O20       1.0000    0.03330   0.10126   0.36206   Biso      1.000     O          -0.632847           
         O21       1.0000    0.21950   0.77188   0.87148   Biso      1.000     O          -0.649718           
         O22       1.0000    0.39710   0.89046   0.92056   Biso      1.000     O          -0.635772           
         O23       1.0000    0.68610   0.41199   0.27249   Biso      1.000     O          -0.7107979999999999           
         O24       1.0000    0.18610   0.08801   0.22751   Biso      1.000     O          -0.7107979999999999           
         O25       1.0000    0.38690   0.07955   0.17145   Biso      1.000     O          -0.673308           
         O26       1.0000    0.81400   0.51643   0.70393   Biso      1.000     O          -0.647716           
         O27       1.0000    0.46670   0.60126   0.86206   Biso      1.000     O          -0.632847           
         O28       1.0000    0.36180   0.41489   0.87799   Biso      1.000     O          -0.5208520000000001           
         O29       1.0000    0.71950   0.72812   0.62852   Biso      1.000     O          -0.649718           
         O30       1.0000    0.89710   0.60954   0.57944   Biso      1.000     O          -0.635772           
         O31       1.0000    0.64990   0.65020   0.75930   Biso      1.000     O          -0.645704           
         O32       1.0000    0.13820   0.91489   0.37799   Biso      1.000     O          -0.5208520000000001           
         Zn1       1.0000    0.63850   0.80367   0.16379   Biso      1.000     Zn          0.900625  
         Zn2       1.0000    0.13850   0.69633   0.33621   Biso      1.000     Zn          0.900626  
         Zn3       1.0000    0.36150   0.19633   0.83621   Biso      1.000     Zn          0.900626  
         Zn4       1.0000    0.86150   0.30367   0.66379   Biso      1.000     Zn          0.900626 