
##########################################################################
#               Crystallographic Information Format file
#               Produced by PyCifRW module
#
#  This is a CIF file.  CIF has been adopted by the International
#  Union of Crystallography as the standard for data archiving and
#  transmission.
#
#  For information on this file format, follow the CIF links at
#  http://www.iucr.org
##########################################################################

data_image0

_cell_length_a                          9.6762
_cell_length_b                          10.9949
_cell_length_c                          11.496
_cell_angle_alpha                       104.931
_cell_angle_beta                        90.785
_cell_angle_gamma                       114.247
_symmetry_space_group_name_H-M          'P 1'
_symmetry_int_tables_number             1
loop_
  _symmetry_equiv_pos_as_xyz
         'x, y, z' 
loop_
  _atom_site_label
  _atom_site_occupancy
  _atom_site_fract_x
  _atom_site_fract_y
  _atom_site_fract_z
  _atom_site_thermal_displace_type
  _atom_site_B_iso_or_equiv
  _atom_site_type_symbol
  _atom_site_charge
         C1        1.0000    0.49370   0.36990   0.94500   Biso      1.000     C          -0.11176300000000002          
         C2        1.0000    0.49690   0.89110   0.90710   Biso      1.000     C          -0.09356  
         C3        1.0000    0.63590   0.00620   0.95430   Biso      1.000     C          -0.032037           
         C4        1.0000    0.77190   0.00200   0.89890   Biso      1.000     C          0.615737  
         C5        1.0000    0.62180   0.48680   0.94030   Biso      1.000     C          -0.0021100000000000003        
         C6        1.0000    0.75010   0.46910   0.88270   Biso      1.000     C          0.61593   
         C7        1.0000    0.81400   0.63090   0.61370   Biso      1.000     C          0.720847  
         C8        1.0000    0.59940   0.44100   0.45430   Biso      1.000     C          -0.021144           
         C9        1.0000    0.44600   0.37720   0.40640   Biso      1.000     C          -0.125116           
         C10       1.0000    0.65480   0.56400   0.55120   Biso      1.000     C          -0.050347           
         C11       1.0000    0.70770   0.38370   0.39890   Biso      1.000     C          0.6543899999999999  
         C12       1.0000    0.21730   0.75080   0.89260   Biso      1.000     C          0.648921  
         C13       1.0000    0.50630   0.63010   0.05500   Biso      1.000     C          -0.11176300000000002          
         C14       1.0000    0.62730   0.62010   0.99500   Biso      1.000     C          -0.047042           
         C15       1.0000    0.75910   0.75410   0.99100   Biso      1.000     C          0.697538  
         C16       1.0000    0.36050   0.88350   0.95090   Biso      1.000     C          -0.033033           
         C17       1.0000    0.50310   0.10890   0.09290   Biso      1.000     C          -0.09356  
         C18       1.0000    0.36410   0.99380   0.04570   Biso      1.000     C          -0.032035           
         C19       1.0000    0.22810   0.99800   0.10110   Biso      1.000     C          0.615735  
         C20       1.0000    0.37270   0.37990   0.00500   Biso      1.000     C          -0.047042           
         C21       1.0000    0.78270   0.24920   0.10740   Biso      1.000     C          0.648922  
         C22       1.0000    0.29230   0.61630   0.60110   Biso      1.000     C          0.654388  
         C23       1.0000    0.34520   0.43600   0.44880   Biso      1.000     C          -0.050347           
         C24       1.0000    0.55400   0.62280   0.59360   Biso      1.000     C          -0.125116           
         C25       1.0000    0.40060   0.55900   0.54570   Biso      1.000     C          -0.02114  
         C26       1.0000    0.18600   0.36910   0.38630   Biso      1.000     C          0.720847  
         C27       1.0000    0.24990   0.53090   0.11730   Biso      1.000     C          0.61593   
         C28       1.0000    0.37820   0.51320   0.05970   Biso      1.000     C          -0.0021100000000000003        
         C29       1.0000    0.63950   0.11650   0.04910   Biso      1.000     C          -0.033032           
         C30       1.0000    0.24090   0.24590   0.00900   Biso      1.000     C          0.697538  
         Er1       1.0000    0.01754   0.92442   0.82953   Biso      1.000     Er          2.197076  
         Er2       1.0000    0.00674   0.50751   0.24678   Biso      1.000     Er          2.078831  
         Er3       1.0000    0.98246   0.07558   0.17047   Biso      1.000     Er          2.197075  
         Er4       1.0000    0.99326   0.49249   0.75322   Biso      1.000     Er          2.078831  
         H1        1.0000    0.48810   0.28210   0.90700   Biso      1.000     H          0.13299   
         H2        1.0000    0.49470   0.81700   0.84460   Biso      1.000     H          0.138316  
         H3        1.0000    0.40890   0.29340   0.34470   Biso      1.000     H          0.132556  
         H4        1.0000    0.51190   0.71790   0.09300   Biso      1.000     H          0.13299   
         H5        1.0000    0.50530   0.18300   0.15540   Biso      1.000     H          0.138316  
         H6        1.0000    0.59110   0.70660   0.65530   Biso      1.000     H          0.132556  
         O1        1.0000    0.90200   0.05360   0.96650   Biso      1.000     O          -0.798099           
         O2        1.0000    0.18050   0.53280   0.63730   Biso      1.000     O          -0.771788           
         O3        1.0000    0.78240   0.36140   0.10250   Biso      1.000     O          -0.5816479999999999           
         O4        1.0000    0.89370   0.24880   0.16700   Biso      1.000     O          -0.7528520000000001           
         O5        1.0000    0.75890   0.94230   0.78940   Biso      1.000     O          -0.562923           
         O6        1.0000    0.11510   0.23880   0.35320   Biso      1.000     O          -0.720496           
         O7        1.0000    0.18620   0.24140   0.10590   Biso      1.000     O          -0.623779           
         O8        1.0000    0.20510   0.14780   0.91280   Biso      1.000     O          -0.740935           
         O9        1.0000    0.11300   0.45180   0.06860   Biso      1.000     O          -0.677391           
         O10       1.0000    0.13130   0.45050   0.37130   Biso      1.000     O          -0.6803680000000001           
         O11       1.0000    0.27520   0.62390   0.21560   Biso      1.000     O          -0.647461           
         O12       1.0000    0.81380   0.75860   0.89410   Biso      1.000     O          -0.623779           
         O13       1.0000    0.09800   0.94640   0.03350   Biso      1.000     O          -0.798099           
         O14       1.0000    0.24110   0.05770   0.21060   Biso      1.000     O          -0.562922           
         O15       1.0000    0.79490   0.85220   0.08720   Biso      1.000     O          -0.740935           
         O16       1.0000    0.88490   0.76120   0.64680   Biso      1.000     O          -0.720495           
         O17       1.0000    0.86870   0.54950   0.62870   Biso      1.000     O          -0.6803680000000001           
         O18       1.0000    0.10630   0.75120   0.83300   Biso      1.000     O          -0.752853           
         O19       1.0000    0.21760   0.63860   0.89750   Biso      1.000     O          -0.581647           
         O20       1.0000    0.81950   0.46720   0.36270   Biso      1.000     O          -0.771788           
         O21       1.0000    0.88700   0.54820   0.93140   Biso      1.000     O          -0.677392           
         O22       1.0000    0.72480   0.37610   0.78440   Biso      1.000     O          -0.647461           
         O23       1.0000    0.67890   0.26030   0.38830   Biso      1.000     O          -0.559241           
         O24       1.0000    0.32110   0.73970   0.61170   Biso      1.000     O          -0.559241 