
##########################################################################
#               Crystallographic Information Format file
#               Produced by PyCifRW module
#
#  This is a CIF file.  CIF has been adopted by the International
#  Union of Crystallography as the standard for data archiving and
#  transmission.
#
#  For information on this file format, follow the CIF links at
#  http://www.iucr.org
##########################################################################

data_image0

_cell_length_a                          10.3277
_cell_length_b                          17.6705
_cell_length_c                          10.6009
_cell_angle_alpha                       90
_cell_angle_beta                        91.7
_cell_angle_gamma                       90
_symmetry_space_group_name_H-M          'P 1'
_symmetry_int_tables_number             1
loop_
  _symmetry_equiv_pos_as_xyz
         'x, y, z' 
loop_
  _atom_site_label
  _atom_site_occupancy
  _atom_site_fract_x
  _atom_site_fract_y
  _atom_site_fract_z
  _atom_site_thermal_displace_type
  _atom_site_B_iso_or_equiv
  _atom_site_type_symbol
  _atom_site_charge
         C1        1.0000    0.85520   0.45630   0.39170   Biso      1.000     C          0.074654  
         C2        1.0000    0.65740   0.45010   0.89210   Biso      1.000     C          -0.125601           
         C3        1.0000    0.38530   0.03640   0.03290   Biso      1.000     C          0.069375  
         C4        1.0000    0.26320   0.07820   0.06280   Biso      1.000     C          -0.15402000000000002          
         C5        1.0000    0.57380   0.93650   0.39240   Biso      1.000     C          0.082687  
         C6        1.0000    0.73590   0.49820   0.95880   Biso      1.000     C          -0.034573           
         C7        1.0000    0.14480   0.95630   0.10830   Biso      1.000     C          0.074654  
         C8        1.0000    0.99470   0.00560   0.76260   Biso      1.000     C          -0.048803           
         C9        1.0000    0.07690   0.05550   0.20690   Biso      1.000     C          -0.102808           
         C10       1.0000    0.92310   0.55550   0.29310   Biso      1.000     C          -0.102807           
         C11       1.0000    0.00530   0.99440   0.23740   Biso      1.000     C          -0.048783999999999994         
         C12       1.0000    0.92310   0.94450   0.79310   Biso      1.000     C          -0.102789           
         C13       1.0000    0.85520   0.04370   0.89170   Biso      1.000     C          0.074654  
         C14       1.0000    0.57380   0.56350   0.89240   Biso      1.000     C          0.082687  
         C15       1.0000    0.73590   0.00180   0.45880   Biso      1.000     C          -0.034584           
         C16       1.0000    0.73680   0.92180   0.93720   Biso      1.000     C          -0.15402000000000002          
         C17       1.0000    0.61470   0.96360   0.96710   Biso      1.000     C          0.069375  
         C18       1.0000    0.58880   0.97930   0.09110   Biso      1.000     C          -0.217858           
         C19       1.0000    0.47630   0.01530   0.12690   Biso      1.000     C          0.055932  
         C20       1.0000    0.65740   0.04990   0.39210   Biso      1.000     C          -0.12559  
         C21       1.0000    0.41120   0.02070   0.90890   Biso      1.000     C          -0.217858           
         C22       1.0000    0.52370   0.98470   0.87310   Biso      1.000     C          0.055932  
         C23       1.0000    0.42620   0.43650   0.10760   Biso      1.000     C          0.082687  
         C24       1.0000    0.41120   0.47930   0.40890   Biso      1.000     C          -0.21785900000000002          
         C25       1.0000    0.07690   0.44450   0.70690   Biso      1.000     C          -0.102808           
         C26       1.0000    0.73680   0.57820   0.43720   Biso      1.000     C          -0.15401900000000002          
         C27       1.0000    0.14480   0.54370   0.60830   Biso      1.000     C          0.074654  
         C28       1.0000    0.61470   0.53640   0.46710   Biso      1.000     C          0.069375  
         C29       1.0000    0.99470   0.49440   0.26260   Biso      1.000     C          -0.048783999999999994         
         C30       1.0000    0.26320   0.42180   0.56280   Biso      1.000     C          -0.15401900000000002          
         C31       1.0000    0.38530   0.46360   0.53290   Biso      1.000     C          0.069376  
         C32       1.0000    0.58880   0.52070   0.59110   Biso      1.000     C          -0.217858           
         C33       1.0000    0.55150   0.96830   0.73580   Biso      1.000     C          -0.16105799999999998          
         C34       1.0000    0.52370   0.51530   0.37310   Biso      1.000     C          0.055932  
         C35       1.0000    0.44850   0.03170   0.26420   Biso      1.000     C          -0.16105799999999998          
         C36       1.0000    0.00530   0.50560   0.73740   Biso      1.000     C          -0.048783           
         C37       1.0000    0.55150   0.53170   0.23580   Biso      1.000     C          -0.16105799999999998          
         C38       1.0000    0.42620   0.06350   0.60760   Biso      1.000     C          0.082687  
         C39       1.0000    0.34260   0.54990   0.10790   Biso      1.000     C          -0.125601           
         C40       1.0000    0.26410   0.99820   0.54120   Biso      1.000     C          -0.034584           
         C41       1.0000    0.44850   0.46830   0.76420   Biso      1.000     C          -0.16105799999999998          
         C42       1.0000    0.34260   0.95010   0.60790   Biso      1.000     C          -0.12559  
         C43       1.0000    0.26410   0.50180   0.04120   Biso      1.000     C          -0.034573           
         C44       1.0000    0.47630   0.48470   0.62690   Biso      1.000     C          0.055930999999999995          
         H1        1.0000    0.59780   0.80690   0.19520   Biso      1.000     H          -0.146284           
         H2        1.0000    0.51770   0.89620   0.37660   Biso      1.000     H          0.110795  
         H3        1.0000    0.81400   0.01500   0.49880   Biso      1.000     H          0.12235599999999999           
         H4        1.0000    0.67130   0.10110   0.37750   Biso      1.000     H          0.146452  
         H5        1.0000    0.93300   0.60470   0.26390   Biso      1.000     H          0.14653   
         H6        1.0000    0.15350   0.81990   0.50340   Biso      1.000     H          -0.156574           
         H7        1.0000    0.06310   0.49500   0.20750   Biso      1.000     H          0.11016   
         H8        1.0000    0.43490   0.08560   0.27440   Biso      1.000     H          0.140401  
         H9        1.0000    0.06700   0.39530   0.73610   Biso      1.000     H          0.14653   
         H10       1.0000    0.19250   0.57450   0.55580   Biso      1.000     H          0.107314  
         H11       1.0000    0.22510   0.40150   0.48520   Biso      1.000     H          0.136139  
         H12       1.0000    0.28500   0.37940   0.61760   Biso      1.000     H          0.141982  
         H13       1.0000    0.35070   0.46510   0.34660   Biso      1.000     H          0.12205099999999999           
         H14       1.0000    0.56510   0.58560   0.22560   Biso      1.000     H          0.140401  
         H15       1.0000    0.63070   0.50600   0.21370   Biso      1.000     H          0.12190799999999999           
         H16       1.0000    0.32870   0.60110   0.12250   Biso      1.000     H          0.146452  
         H17       1.0000    0.18600   0.51500   0.00120   Biso      1.000     H          0.12235599999999999           
         H18       1.0000    0.48230   0.39620   0.12340   Biso      1.000     H          0.110795  
         H19       1.0000    0.84650   0.31990   0.99660   Biso      1.000     H          -0.156574           
         H20       1.0000    0.40220   0.30690   0.30480   Biso      1.000     H          -0.146284           
         H21       1.0000    0.06310   0.00500   0.70750   Biso      1.000     H          0.11016199999999998           
         H22       1.0000    0.80750   0.07450   0.94420   Biso      1.000     H          0.107314  
         H23       1.0000    0.77490   0.90150   0.01480   Biso      1.000     H          0.136139  
         H24       1.0000    0.71500   0.87940   0.88240   Biso      1.000     H          0.141982  
         H25       1.0000    0.64930   0.96510   0.15340   Biso      1.000     H          0.12205099999999999           
         H26       1.0000    0.36930   0.00600   0.28630   Biso      1.000     H          0.12190799999999999           
         H27       1.0000    0.93300   0.89530   0.76390   Biso      1.000     H          0.146529  
         H28       1.0000    0.93690   0.50500   0.79250   Biso      1.000     H          0.11016   
         H29       1.0000    0.77490   0.59850   0.51480   Biso      1.000     H          0.136139  
         H30       1.0000    0.15350   0.68010   0.00340   Biso      1.000     H          -0.156574           
         H31       1.0000    0.59780   0.69310   0.69520   Biso      1.000     H          -0.146284           
         H32       1.0000    0.93690   0.99500   0.29250   Biso      1.000     H          0.110161  
         H33       1.0000    0.80750   0.42550   0.44420   Biso      1.000     H          0.107313  
         H34       1.0000    0.19250   0.92550   0.05580   Biso      1.000     H          0.107314  
         H35       1.0000    0.22510   0.09850   0.98520   Biso      1.000     H          0.136139  
         H36       1.0000    0.28500   0.12060   0.11760   Biso      1.000     H          0.141982  
         H37       1.0000    0.35070   0.03490   0.84660   Biso      1.000     H          0.12205099999999999           
         H38       1.0000    0.56510   0.91440   0.72560   Biso      1.000     H          0.140401  
         H39       1.0000    0.63070   0.99400   0.71370   Biso      1.000     H          0.12190799999999999           
         H40       1.0000    0.32870   0.89890   0.62250   Biso      1.000     H          0.146451  
         H41       1.0000    0.18600   0.98500   0.50120   Biso      1.000     H          0.122357  
         H42       1.0000    0.48230   0.10380   0.62340   Biso      1.000     H          0.110795  
         H43       1.0000    0.84650   0.18010   0.49660   Biso      1.000     H          -0.156574           
         H44       1.0000    0.40220   0.19310   0.80480   Biso      1.000     H          -0.146284           
         H45       1.0000    0.51770   0.60380   0.87660   Biso      1.000     H          0.110795  
         H46       1.0000    0.81400   0.48500   0.99880   Biso      1.000     H          0.12235599999999999           
         H47       1.0000    0.06700   0.10470   0.23610   Biso      1.000     H          0.14653   
         H48       1.0000    0.67130   0.39890   0.87750   Biso      1.000     H          0.146452  
         H49       1.0000    0.36930   0.49400   0.78630   Biso      1.000     H          0.12190799999999999           
         H50       1.0000    0.71500   0.62060   0.38240   Biso      1.000     H          0.141982  
         H51       1.0000    0.64930   0.53490   0.65340   Biso      1.000     H          0.12205099999999999           
         H52       1.0000    0.43490   0.41440   0.77440   Biso      1.000     H          0.140401  
         N1        1.0000    0.95220   0.06770   0.82400   Biso      1.000     N          -0.284821           
         N2        1.0000    0.31690   0.43150   0.04170   Biso      1.000     N          -0.281504           
         N3        1.0000    0.44660   0.50740   0.14940   Biso      1.000     N          0.073664  
         N4        1.0000    0.16620   0.46960   0.62470   Biso      1.000     N          0.074154  
         N5        1.0000    0.04780   0.56770   0.67600   Biso      1.000     N          -0.28482399999999997          
         N6        1.0000    0.04780   0.93230   0.17600   Biso      1.000     N          -0.28482399999999997          
         N7        1.0000    0.16620   0.03040   0.12470   Biso      1.000     N          0.074154  
         N8        1.0000    0.44660   0.99260   0.64940   Biso      1.000     N          0.073663  
         N9        1.0000    0.31690   0.06850   0.54170   Biso      1.000     N          -0.281504           
         N10       1.0000    0.83380   0.53040   0.37530   Biso      1.000     N          0.074154  
         N11       1.0000    0.55340   0.00740   0.35060   Biso      1.000     N          0.073663  
         N12       1.0000    0.68310   0.93150   0.45830   Biso      1.000     N          -0.281503           
         N13       1.0000    0.95220   0.43230   0.32400   Biso      1.000     N          -0.28482399999999997          
         N14       1.0000    0.55340   0.49260   0.85060   Biso      1.000     N          0.073664  
         N15       1.0000    0.68310   0.56850   0.95830   Biso      1.000     N          -0.281503           
         N16       1.0000    0.83380   0.96960   0.87530   Biso      1.000     N          0.074153  
         O1        1.0000    0.30910   0.23885   0.62050   Biso      1.000     O          -0.751905           
         O2        1.0000    0.94550   0.28110   0.45790   Biso      1.000     O          -0.750657           
         O3        1.0000    0.28600   0.30439   0.82700   Biso      1.000     O          -0.748075           
         O4        1.0000    0.05080   0.15430   0.50010   Biso      1.000     O          -0.770944           
         O5        1.0000    0.92800   0.27380   0.16740   Biso      1.000     O          -0.765142           
         O6        1.0000    0.28600   0.19561   0.32700   Biso      1.000     O          -0.7480760000000001           
         O7        1.0000    0.94550   0.21890   0.95790   Biso      1.000     O          -0.750656           
         O8        1.0000    0.05080   0.34570   0.00010   Biso      1.000     O          -0.770944           
         O9        1.0000    0.19670   0.17178   0.79770   Biso      1.000     O          -0.765443           
         O10       1.0000    0.92800   0.22620   0.66740   Biso      1.000     O          -0.7651399999999999           
         O11       1.0000    0.30910   0.26115   0.12050   Biso      1.000     O          -0.751905           
         O12       1.0000    0.07200   0.72620   0.83260   Biso      1.000     O          -0.765141           
         O13       1.0000    0.05450   0.78110   0.04210   Biso      1.000     O          -0.750657           
         O14       1.0000    0.80330   0.82822   0.20230   Biso      1.000     O          -0.765443           
         O15       1.0000    0.69090   0.76115   0.37950   Biso      1.000     O          -0.751905           
         O16       1.0000    0.71400   0.69561   0.17300   Biso      1.000     O          -0.748075           
         O17       1.0000    0.94920   0.65430   0.99990   Biso      1.000     O          -0.770944           
         O18       1.0000    0.71400   0.80439   0.67300   Biso      1.000     O          -0.748075           
         O19       1.0000    0.69090   0.73885   0.87950   Biso      1.000     O          -0.751904           
         O20       1.0000    0.94920   0.84570   0.49990   Biso      1.000     O          -0.770944           
         O21       1.0000    0.80330   0.67178   0.70230   Biso      1.000     O          -0.765443           
         O22       1.0000    0.07200   0.77380   0.33260   Biso      1.000     O          -0.765141           
         O23       1.0000    0.19670   0.32822   0.29770   Biso      1.000     O          -0.765444           
         O24       1.0000    0.05450   0.71890   0.54210   Biso      1.000     O          -0.750657           
         P1        1.0000    0.05829   0.79098   0.47121   Biso      1.000     P          1.2956379999999998  
         P2        1.0000    0.29878   0.22838   0.76253   Biso      1.000     P          1.252051  
         P3        1.0000    0.94171   0.20902   0.52879   Biso      1.000     P          1.2956370000000001  
         P4        1.0000    0.70122   0.72838   0.73747   Biso      1.000     P          1.252049  
         P5        1.0000    0.70122   0.77162   0.23747   Biso      1.000     P          1.252049  
         P6        1.0000    0.29878   0.27162   0.26253   Biso      1.000     P          1.252051  
         P7        1.0000    0.94171   0.29098   0.02879   Biso      1.000     P          1.2956379999999998  
         P8        1.0000    0.05829   0.70902   0.97121   Biso      1.000     P          1.2956379999999998  
         Zn1       1.0000    0.98884   0.67478   0.69187   Biso      1.000     Zn          0.939141  
         Zn2       1.0000    0.76626   0.66877   0.00544   Biso      1.000     Zn          0.9426680000000001  
         Zn3       1.0000    0.76626   0.83123   0.50544   Biso      1.000     Zn          0.9426690000000001  
         Zn4       1.0000    0.98884   0.82522   0.19187   Biso      1.000     Zn          0.939141  
         Zn5       1.0000    0.23374   0.33123   0.99456   Biso      1.000     Zn          0.9426680000000001  
         Zn6       1.0000    0.01116   0.32522   0.30813   Biso      1.000     Zn          0.9391450000000001  
         Zn7       1.0000    0.01116   0.17478   0.80813   Biso      1.000     Zn          0.93914   
         Zn8       1.0000    0.23374   0.16877   0.49456   Biso      1.000     Zn          0.9426690000000001 