
##########################################################################
#               Crystallographic Information Format file
#               Produced by PyCifRW module
#
#  This is a CIF file.  CIF has been adopted by the International
#  Union of Crystallography as the standard for data archiving and
#  transmission.
#
#  For information on this file format, follow the CIF links at
#  http://www.iucr.org
##########################################################################

data_image0

_cell_length_a                          11.44
_cell_length_b                          12.288
_cell_length_c                          36.854
_cell_angle_alpha                       90
_cell_angle_beta                        90
_cell_angle_gamma                       117.642
_symmetry_space_group_name_H-M          'P 1'
_symmetry_int_tables_number             1
loop_
  _symmetry_equiv_pos_as_xyz
         'x, y, z' 
loop_
  _atom_site_label
  _atom_site_occupancy
  _atom_site_fract_x
  _atom_site_fract_y
  _atom_site_fract_z
  _atom_site_thermal_displace_type
  _atom_site_B_iso_or_equiv
  _atom_site_type_symbol
  _atom_site_charge
         C1        1.0000    0.54830   0.31660   0.96940   Biso      1.000     C          0.660413  
         C2        1.0000    0.67020   0.09310   0.31747   Biso      1.000     C          -0.115393           
         C3        1.0000    0.68050   0.07340   0.35388   Biso      1.000     C          0.010484  
         C4        1.0000    0.30090   0.33650   0.40870   Biso      1.000     C          -0.214398           
         C5        1.0000    0.43200   0.37690   0.41390   Biso      1.000     C          0.275973  
         C6        1.0000    0.59560   0.30200   0.39805   Biso      1.000     C          0.536665  
         C7        1.0000    0.54260   0.27850   0.21762   Biso      1.000     C          0.279476  
         C8        1.0000    0.50590   0.36890   0.21083   Biso      1.000     C          -0.206053           
         C9        1.0000    0.55030   0.20870   0.18936   Biso      1.000     C          -0.191635           
         C10       1.0000    0.52070   0.22950   0.15432   Biso      1.000     C          -0.094523           
         C11       1.0000    0.47600   0.38930   0.17599   Biso      1.000     C          -0.082839           
         C12       1.0000    0.48230   0.31820   0.14717   Biso      1.000     C          -0.037321           
         C13       1.0000    0.44720   0.33890   0.10967   Biso      1.000     C          0.56195   
         C14       1.0000    0.30180   0.48500   0.45201   Biso      1.000     C          -0.026269           
         C15       1.0000    0.58980   0.23140   0.95024   Biso      1.000     C          -0.048984           
         C16       1.0000    0.85230   0.86460   0.88060   Biso      1.000     C          -0.157881           
         C17       1.0000    0.54080   0.10890   0.95919   Biso      1.000     C          -0.092089           
         C18       1.0000    0.88750   0.74770   0.83209   Biso      1.000     C          -0.176929           
         C19       1.0000    0.67170   0.08130   0.91274   Biso      1.000     C          0.279361  
         C20       1.0000    0.58150   0.03390   0.94071   Biso      1.000     C          -0.215972           
         C21       1.0000    0.86370   0.81670   0.80613   Biso      1.000     C          -0.006604           
         C22       1.0000    0.67810   0.27700   0.92230   Biso      1.000     C          -0.083667           
         C23       1.0000    0.71970   0.20310   0.90330   Biso      1.000     C          -0.213583           
         C24       1.0000    0.06860   0.48390   0.95800   Biso      1.000     C          -0.072956           
         C25       1.0000    0.78510   0.02610   0.86425   Biso      1.000     C          0.495292  
         C26       1.0000    0.00360   0.53970   0.94000   Biso      1.000     C          -0.184972           
         C27       1.0000    0.87040   0.80140   0.76605   Biso      1.000     C          0.504875  
         C28       1.0000    0.87750   0.76680   0.86901   Biso      1.000     C          -0.01384  
         C29       1.0000    0.26300   0.60820   0.92860   Biso      1.000     C          -0.077385           
         C30       1.0000    0.23410   0.54640   0.47217   Biso      1.000     C          0.642214  
         C31       1.0000    0.95170   0.68340   0.46940   Biso      1.000     C          0.660413  
         C32       1.0000    0.82980   0.90690   0.81747   Biso      1.000     C          -0.115393           
         C33       1.0000    0.81950   0.92660   0.85388   Biso      1.000     C          0.010484  
         C34       1.0000    0.19910   0.66350   0.90870   Biso      1.000     C          -0.214398           
         C35       1.0000    0.06800   0.62310   0.91390   Biso      1.000     C          0.275994  
         C36       1.0000    0.90440   0.69800   0.89805   Biso      1.000     C          0.536666  
         C37       1.0000    0.95740   0.72150   0.71762   Biso      1.000     C          0.279476  
         C38       1.0000    0.99410   0.63110   0.71083   Biso      1.000     C          -0.206053           
         C39       1.0000    0.94970   0.79130   0.68936   Biso      1.000     C          -0.191635           
         C40       1.0000    0.97930   0.77050   0.65432   Biso      1.000     C          -0.094523           
         C41       1.0000    0.02400   0.61070   0.67599   Biso      1.000     C          -0.082839           
         C42       1.0000    0.01770   0.68180   0.64717   Biso      1.000     C          -0.037321           
         C43       1.0000    0.05280   0.66110   0.60967   Biso      1.000     C          0.56195   
         C44       1.0000    0.91020   0.76860   0.45024   Biso      1.000     C          -0.048984           
         C45       1.0000    0.23700   0.39180   0.42860   Biso      1.000     C          -0.077367           
         C46       1.0000    0.49640   0.46030   0.44000   Biso      1.000     C          -0.184951           
         C47       1.0000    0.71490   0.97390   0.36425   Biso      1.000     C          0.495293  
         C48       1.0000    0.43140   0.51610   0.45800   Biso      1.000     C          -0.07295  
         C49       1.0000    0.78030   0.79690   0.40330   Biso      1.000     C          -0.213586           
         C50       1.0000    0.82190   0.72300   0.42230   Biso      1.000     C          -0.083667           
         C51       1.0000    0.63630   0.18330   0.30613   Biso      1.000     C          -0.006605           
         C52       1.0000    0.91850   0.96610   0.44071   Biso      1.000     C          -0.215975           
         C53       1.0000    0.82830   0.91870   0.41274   Biso      1.000     C          0.279365  
         C54       1.0000    0.61250   0.25230   0.33209   Biso      1.000     C          -0.176927           
         C55       1.0000    0.95920   0.89110   0.45919   Biso      1.000     C          -0.092089           
         C56       1.0000    0.64770   0.13540   0.38060   Biso      1.000     C          -0.157881           
         C57       1.0000    0.62250   0.23320   0.36901   Biso      1.000     C          -0.01384  
         C58       1.0000    0.62960   0.19860   0.26605   Biso      1.000     C          0.504876  
         C59       1.0000    0.55280   0.66110   0.89033   Biso      1.000     C          0.56195   
         C60       1.0000    0.51770   0.68180   0.85283   Biso      1.000     C          -0.037323           
         C61       1.0000    0.52400   0.61070   0.82401   Biso      1.000     C          -0.082838           
         C62       1.0000    0.05030   0.20870   0.31064   Biso      1.000     C          -0.191638           
         C63       1.0000    0.00590   0.36890   0.28917   Biso      1.000     C          -0.206057           
         C64       1.0000    0.04260   0.27850   0.28238   Biso      1.000     C          0.279481  
         C65       1.0000    0.09560   0.30200   0.10195   Biso      1.000     C          0.536665  
         C66       1.0000    0.93200   0.37690   0.08610   Biso      1.000     C          0.275959  
         C67       1.0000    0.80090   0.33650   0.09130   Biso      1.000     C          -0.214384           
         C68       1.0000    0.18050   0.07340   0.14612   Biso      1.000     C          0.010478  
         C69       1.0000    0.17020   0.09310   0.18253   Biso      1.000     C          -0.115386           
         C70       1.0000    0.80180   0.48500   0.04799   Biso      1.000     C          -0.026269           
         C71       1.0000    0.73410   0.54640   0.02783   Biso      1.000     C          0.642214  
         C72       1.0000    0.41020   0.76860   0.04976   Biso      1.000     C          -0.048984           
         C73       1.0000    0.45170   0.68340   0.03060   Biso      1.000     C          0.660413  
         C74       1.0000    0.02070   0.22950   0.34568   Biso      1.000     C          -0.094522           
         C75       1.0000    0.12250   0.23320   0.13099   Biso      1.000     C          -0.01384  
         C76       1.0000    0.45920   0.89110   0.04081   Biso      1.000     C          -0.092089           
         C77       1.0000    0.11250   0.25230   0.16791   Biso      1.000     C          -0.176929           
         C78       1.0000    0.32830   0.91870   0.08726   Biso      1.000     C          0.279361  
         C79       1.0000    0.41850   0.96610   0.05929   Biso      1.000     C          -0.215972           
         C80       1.0000    0.13630   0.18330   0.19387   Biso      1.000     C          -0.006605           
         C81       1.0000    0.32190   0.72300   0.07770   Biso      1.000     C          -0.083667           
         C82       1.0000    0.28030   0.79690   0.09670   Biso      1.000     C          -0.213583           
         C83       1.0000    0.93140   0.51610   0.04200   Biso      1.000     C          -0.07295  
         C84       1.0000    0.21490   0.97390   0.13575   Biso      1.000     C          0.495293  
         C85       1.0000    0.99640   0.46030   0.06000   Biso      1.000     C          -0.184949           
         C86       1.0000    0.12960   0.19860   0.23395   Biso      1.000     C          0.504875  
         C87       1.0000    0.73700   0.39180   0.07140   Biso      1.000     C          -0.077369           
         C88       1.0000    0.14770   0.13540   0.11940   Biso      1.000     C          -0.15788  
         C89       1.0000    0.97600   0.38930   0.32401   Biso      1.000     C          -0.082838           
         C90       1.0000    0.98230   0.31820   0.35283   Biso      1.000     C          -0.037321           
         C91       1.0000    0.94720   0.33890   0.39033   Biso      1.000     C          0.56195   
         C92       1.0000    0.47930   0.77050   0.84568   Biso      1.000     C          -0.094522           
         C93       1.0000    0.44970   0.79130   0.81064   Biso      1.000     C          -0.191635           
         C94       1.0000    0.49410   0.63110   0.78917   Biso      1.000     C          -0.206057           
         C95       1.0000    0.45740   0.72150   0.78238   Biso      1.000     C          0.279481  
         C96       1.0000    0.40440   0.69800   0.60195   Biso      1.000     C          0.536665  
         C97       1.0000    0.56800   0.62310   0.58610   Biso      1.000     C          0.275959  
         C98       1.0000    0.69910   0.66350   0.59130   Biso      1.000     C          -0.214384           
         C99       1.0000    0.31950   0.92660   0.64612   Biso      1.000     C          0.010478  
         C100      1.0000    0.32980   0.90690   0.68253   Biso      1.000     C          -0.115386           
         C101      1.0000    0.69820   0.51500   0.54799   Biso      1.000     C          -0.026269           
         C102      1.0000    0.76590   0.45360   0.52783   Biso      1.000     C          0.642214  
         C103      1.0000    0.08980   0.23140   0.54976   Biso      1.000     C          -0.048984           
         C104      1.0000    0.04830   0.31660   0.53060   Biso      1.000     C          0.660413  
         C105      1.0000    0.37750   0.76680   0.63099   Biso      1.000     C          -0.01384  
         C106      1.0000    0.35230   0.86460   0.61940   Biso      1.000     C          -0.15788  
         C107      1.0000    0.04080   0.10890   0.54081   Biso      1.000     C          -0.092089           
         C108      1.0000    0.38750   0.74770   0.66791   Biso      1.000     C          -0.176929           
         C109      1.0000    0.17170   0.08130   0.58726   Biso      1.000     C          0.279361  
         C110      1.0000    0.08150   0.03390   0.55929   Biso      1.000     C          -0.215972           
         C111      1.0000    0.36370   0.81670   0.69387   Biso      1.000     C          -0.006605           
         C112      1.0000    0.17810   0.27700   0.57770   Biso      1.000     C          -0.083667           
         C113      1.0000    0.21970   0.20310   0.59670   Biso      1.000     C          -0.213583           
         C114      1.0000    0.56860   0.48390   0.54200   Biso      1.000     C          -0.07295  
         C115      1.0000    0.28510   0.02610   0.63575   Biso      1.000     C          0.495293  
         C116      1.0000    0.50360   0.53970   0.56000   Biso      1.000     C          -0.184949           
         C117      1.0000    0.37040   0.80140   0.73395   Biso      1.000     C          0.504875  
         C118      1.0000    0.76300   0.60820   0.57140   Biso      1.000     C          -0.077369           
         C119      1.0000    0.19820   0.51500   0.95201   Biso      1.000     C          -0.026246           
         C120      1.0000    0.26590   0.45360   0.97217   Biso      1.000     C          0.642212  
         Ce1       1.0000    0.13023   0.62999   0.53649   Biso      1.000     Ce          2.054651  
         Ce2       1.0000    0.36977   0.37001   0.03649   Biso      1.000     Ce          2.054652  
         Ce3       1.0000    0.86977   0.37001   0.46351   Biso      1.000     Ce          2.054652  
         Ce4       1.0000    0.63023   0.62999   0.96351   Biso      1.000     Ce          2.054651  
         H1        1.0000    0.02030   0.92380   0.47790   Biso      1.000     H          0.111516  
         H2        1.0000    0.04830   0.54940   0.67170   Biso      1.000     H          0.122958  
         H3        1.0000    0.97320   0.81740   0.63530   Biso      1.000     H          0.115803  
         H4        1.0000    0.99880   0.58360   0.72990   Biso      1.000     H          0.127916  
         H5        1.0000    0.95880   0.70750   0.77100   Biso      1.000     H          0.298258  
         H6        1.0000    0.68880   0.93230   0.90500   Biso      1.000     H          0.296398  
         H7        1.0000    0.04530   0.70260   0.87040   Biso      1.000     H          0.301772  
         H8        1.0000    0.81400   0.95410   0.80030   Biso      1.000     H          0.137285  
         H9        1.0000    0.14680   0.36290   0.42540   Biso      1.000     H          0.10395   
         H10       1.0000    0.85740   0.88630   0.90490   Biso      1.000     H          0.124314  
         H11       1.0000    0.47970   0.07620   0.97790   Biso      1.000     H          0.111516  
         H12       1.0000    0.91050   0.68770   0.82480   Biso      1.000     H          0.114944  
         H13       1.0000    0.54800   0.95170   0.94720   Biso      1.000     H          0.13049   
         H14       1.0000    0.71120   0.35920   0.91580   Biso      1.000     H          0.117686  
         H15       1.0000    0.24600   0.72660   0.89240   Biso      1.000     H          0.12607   
         H16       1.0000    0.58300   0.48030   0.44590   Biso      1.000     H          0.134041  
         H17       1.0000    0.72030   0.76420   0.38440   Biso      1.000     H          0.144965  
         H18       1.0000    0.77970   0.23580   0.88440   Biso      1.000     H          0.144965  
         H19       1.0000    0.45170   0.45060   0.17170   Biso      1.000     H          0.122958  
         H20       1.0000    0.52680   0.18260   0.13530   Biso      1.000     H          0.115803  
         H21       1.0000    0.57530   0.14780   0.19370   Biso      1.000     H          0.136391  
         H22       1.0000    0.50120   0.41640   0.22990   Biso      1.000     H          0.127916  
         H23       1.0000    0.54120   0.29250   0.27100   Biso      1.000     H          0.298258  
         H24       1.0000    0.81120   0.06770   0.40500   Biso      1.000     H          0.296398  
         H25       1.0000    0.47830   0.57730   0.47480   Biso      1.000     H          0.11475   
         H26       1.0000    0.45470   0.29740   0.37040   Biso      1.000     H          0.301771  
         H27       1.0000    0.68600   0.04590   0.30030   Biso      1.000     H          0.137285  
         H28       1.0000    0.64260   0.11370   0.40490   Biso      1.000     H          0.124314  
         H29       1.0000    0.64680   0.36290   0.07460   Biso      1.000     H          0.10395   
         H30       1.0000    0.58950   0.31230   0.32480   Biso      1.000     H          0.114944  
         H31       1.0000    0.95200   0.04830   0.44720   Biso      1.000     H          0.13049   
         H32       1.0000    0.78880   0.64080   0.41580   Biso      1.000     H          0.117686  
         H33       1.0000    0.25400   0.27340   0.39240   Biso      1.000     H          0.12607   
         H34       1.0000    0.02170   0.42270   0.97480   Biso      1.000     H          0.114751  
         H35       1.0000    0.92470   0.85220   0.69370   Biso      1.000     H          0.136391  
         H36       1.0000    0.35320   0.63710   0.92540   Biso      1.000     H          0.103951  
         H37       1.0000    0.02680   0.18260   0.36470   Biso      1.000     H          0.115803  
         H38       1.0000    0.07530   0.14780   0.30630   Biso      1.000     H          0.136391  
         H39       1.0000    0.00120   0.41640   0.27010   Biso      1.000     H          0.127917  
         H40       1.0000    0.04120   0.29250   0.22900   Biso      1.000     H          0.298258  
         H41       1.0000    0.31120   0.06770   0.09500   Biso      1.000     H          0.296398  
         H42       1.0000    0.95470   0.29740   0.12960   Biso      1.000     H          0.301771  
         H43       1.0000    0.75400   0.27340   0.10760   Biso      1.000     H          0.126069  
         H44       1.0000    0.95170   0.45060   0.32830   Biso      1.000     H          0.122958  
         H45       1.0000    0.18600   0.04590   0.19970   Biso      1.000     H          0.137285  
         H46       1.0000    0.52030   0.92380   0.02210   Biso      1.000     H          0.111516  
         H47       1.0000    0.08950   0.31230   0.17520   Biso      1.000     H          0.114944  
         H48       1.0000    0.91700   0.51970   0.94590   Biso      1.000     H          0.134043  
         H49       1.0000    0.28880   0.64080   0.08420   Biso      1.000     H          0.117686  
         H50       1.0000    0.22030   0.76420   0.11560   Biso      1.000     H          0.144965  
         H51       1.0000    0.97830   0.57730   0.02520   Biso      1.000     H          0.11475   
         H52       1.0000    0.08300   0.48030   0.05410   Biso      1.000     H          0.134041  
         H53       1.0000    0.14260   0.11370   0.09510   Biso      1.000     H          0.124314  
         H54       1.0000    0.85320   0.63710   0.57460   Biso      1.000     H          0.10395   
         H55       1.0000    0.45200   0.04830   0.05280   Biso      1.000     H          0.13049   
         H56       1.0000    0.52170   0.42270   0.52520   Biso      1.000     H          0.11475   
         H57       1.0000    0.54830   0.54940   0.82830   Biso      1.000     H          0.122958  
         H58       1.0000    0.47320   0.81740   0.86470   Biso      1.000     H          0.115803  
         H59       1.0000    0.42470   0.85220   0.80630   Biso      1.000     H          0.136391  
         H60       1.0000    0.49880   0.58360   0.77010   Biso      1.000     H          0.127917  
         H61       1.0000    0.45880   0.70750   0.72900   Biso      1.000     H          0.298258  
         H62       1.0000    0.54530   0.70260   0.62960   Biso      1.000     H          0.301771  
         H63       1.0000    0.74600   0.72660   0.60760   Biso      1.000     H          0.126069  
         H64       1.0000    0.18880   0.93230   0.59500   Biso      1.000     H          0.296398  
         H65       1.0000    0.35740   0.88630   0.59510   Biso      1.000     H          0.124314  
         H66       1.0000    0.97970   0.07620   0.52210   Biso      1.000     H          0.111516  
         H67       1.0000    0.41050   0.68770   0.67520   Biso      1.000     H          0.114944  
         H68       1.0000    0.04800   0.95170   0.55280   Biso      1.000     H          0.13049   
         H69       1.0000    0.21120   0.35920   0.58420   Biso      1.000     H          0.117686  
         H70       1.0000    0.27970   0.23580   0.61560   Biso      1.000     H          0.144965  
         H71       1.0000    0.31400   0.95410   0.69970   Biso      1.000     H          0.137285  
         H72       1.0000    0.41700   0.51970   0.55410   Biso      1.000     H          0.134041  
         N1        1.0000    0.43150   0.74000   0.74543   Biso      1.000     N          -0.42163  
         N2        1.0000    0.99100   0.32160   0.10869   Biso      1.000     N          -0.412108           
         N3        1.0000    0.28750   0.99720   0.10491   Biso      1.000     N          -0.430864           
         N4        1.0000    0.06850   0.26000   0.24543   Biso      1.000     N          -0.42163  
         N5        1.0000    0.50900   0.67840   0.60869   Biso      1.000     N          -0.412108           
         N6        1.0000    0.21250   0.00280   0.60491   Biso      1.000     N          -0.430864           
         N7        1.0000    0.00900   0.67840   0.89131   Biso      1.000     N          -0.412111           
         N8        1.0000    0.93150   0.74000   0.75457   Biso      1.000     N          -0.42163  
         N9        1.0000    0.49100   0.32160   0.39131   Biso      1.000     N          -0.412109           
         N10       1.0000    0.78750   0.99720   0.39509   Biso      1.000     N          -0.430864           
         N11       1.0000    0.56850   0.26000   0.25457   Biso      1.000     N          -0.42163  
         N12       1.0000    0.71250   0.00280   0.89509   Biso      1.000     N          -0.430864           
         O1        1.0000    0.34170   0.66830   0.57333   Biso      1.000     O          -0.556442           
         O2        1.0000    0.56440   0.56730   0.89757   Biso      1.000     O          -0.591622           
         O3        1.0000    0.57520   0.74460   0.91424   Biso      1.000     O          -0.678072           
         O4        1.0000    0.10540   0.42590   0.54129   Biso      1.000     O          -0.652113           
         O5        1.0000    0.88890   0.49210   0.53163   Biso      1.000     O          -0.720562           
         O6        1.0000    0.31330   0.83790   0.75460   Biso      1.000     O          -0.493541           
         O7        1.0000    0.69950   0.36750   0.50678   Biso      1.000     O          -0.635347           
         O8        1.0000    0.15830   0.33170   0.07333   Biso      1.000     O          -0.556442           
         O9        1.0000    0.53870   0.72620   0.00633   Biso      1.000     O          -0.68184  
         O10       1.0000    0.93560   0.43270   0.39757   Biso      1.000     O          -0.591622           
         O11       1.0000    0.92480   0.25540   0.41424   Biso      1.000     O          -0.678072           
         O12       1.0000    0.39460   0.57410   0.04129   Biso      1.000     O          -0.652113           
         O13       1.0000    0.61110   0.50790   0.03163   Biso      1.000     O          -0.720562           
         O14       1.0000    0.18670   0.16210   0.25460   Biso      1.000     O          -0.493541           
         O15       1.0000    0.96130   0.27380   0.50633   Biso      1.000     O          -0.68184  
         O16       1.0000    0.32160   0.11820   0.65390   Biso      1.000     O          -0.473476           
         O17       1.0000    0.82160   0.11820   0.84610   Biso      1.000     O          -0.473476           
         O18       1.0000    0.80050   0.63250   0.00678   Biso      1.000     O          -0.635347           
         O19       1.0000    0.81330   0.83790   0.74540   Biso      1.000     O          -0.493541           
         O20       1.0000    0.03870   0.72620   0.49367   Biso      1.000     O          -0.68184  
         O21       1.0000    0.65830   0.33170   0.42667   Biso      1.000     O          -0.556442           
         O22       1.0000    0.43560   0.43270   0.10243   Biso      1.000     O          -0.591622           
         O23       1.0000    0.42480   0.25540   0.08576   Biso      1.000     O          -0.678072           
         O24       1.0000    0.89460   0.57410   0.45871   Biso      1.000     O          -0.652113           
         O25       1.0000    0.11110   0.50790   0.46837   Biso      1.000     O          -0.720562           
         O26       1.0000    0.68670   0.16210   0.24540   Biso      1.000     O          -0.493541           
         O27       1.0000    0.30050   0.63250   0.49322   Biso      1.000     O          -0.635347           
         O28       1.0000    0.67840   0.88180   0.34610   Biso      1.000     O          -0.473476           
         O29       1.0000    0.46130   0.27380   0.99367   Biso      1.000     O          -0.68184  
         O30       1.0000    0.84170   0.66830   0.92667   Biso      1.000     O          -0.556441           
         O31       1.0000    0.06440   0.56730   0.60243   Biso      1.000     O          -0.591622           
         O32       1.0000    0.07520   0.74460   0.58576   Biso      1.000     O          -0.678072           
         O33       1.0000    0.60540   0.42590   0.95871   Biso      1.000     O          -0.652113           
         O34       1.0000    0.38890   0.49210   0.96837   Biso      1.000     O          -0.720561           
         O35       1.0000    0.19950   0.36750   0.99322   Biso      1.000     O          -0.635347           
         O36       1.0000    0.17840   0.88180   0.15390   Biso      1.000     O          -0.473476 