
##########################################################################
#               Crystallographic Information Format file
#               Produced by PyCifRW module
#
#  This is a CIF file.  CIF has been adopted by the International
#  Union of Crystallography as the standard for data archiving and
#  transmission.
#
#  For information on this file format, follow the CIF links at
#  http://www.iucr.org
##########################################################################

data_image0

_cell_length_a                          12.032
_cell_length_b                          15.087
_cell_length_c                          15.087
_cell_angle_alpha                       120
_cell_angle_beta                        90
_cell_angle_gamma                       90
_symmetry_space_group_name_H-M          'P 1'
_symmetry_int_tables_number             1
loop_
  _symmetry_equiv_pos_as_xyz
         'x, y, z' 
loop_
  _atom_site_label
  _atom_site_occupancy
  _atom_site_fract_x
  _atom_site_fract_y
  _atom_site_fract_z
  _atom_site_thermal_displace_type
  _atom_site_B_iso_or_equiv
  _atom_site_type_symbol
  _atom_site_charge
         C1        1.0000    0.61973   0.58620   0.82070   Biso      1.000     C          -0.074699           
         C2        1.0000    0.81837   0.87130   0.38080   Biso      1.000     C          0.537395  
         C3        1.0000    0.91297   0.80630   0.31080   Biso      1.000     C          -0.00103  
         C4        1.0000    0.95307   0.82070   0.23450   Biso      1.000     C          -0.074673           
         C5        1.0000    0.95757   0.72880   0.32840   Biso      1.000     C          -0.090598           
         C6        1.0000    0.15170   0.61920   0.49050   Biso      1.000     C          0.537345  
         C7        1.0000    0.24630   0.68920   0.49550   Biso      1.000     C          -0.001179           
         C8        1.0000    0.28640   0.76550   0.58620   Biso      1.000     C          -0.074509           
         C9        1.0000    0.48503   0.50950   0.12870   Biso      1.000     C          0.537438  
         C10       1.0000    0.57963   0.50450   0.19370   Biso      1.000     C          -0.001593           
         C11       1.0000    0.61973   0.41380   0.17930   Biso      1.000     C          -0.075085           
         C12       1.0000    0.04243   0.67160   0.27120   Biso      1.000     C          -0.090926           
         C13       1.0000    0.62423   0.59960   0.27120   Biso      1.000     C          -0.090625           
         C14       1.0000    0.91297   0.19370   0.68920   Biso      1.000     C          -0.001044           
         C15       1.0000    0.95307   0.17930   0.76550   Biso      1.000     C          -0.074648           
         C16       1.0000    0.95757   0.27120   0.67160   Biso      1.000     C          -0.090622           
         C17       1.0000    0.15170   0.38080   0.50950   Biso      1.000     C          0.53734   
         C18       1.0000    0.24630   0.31080   0.50450   Biso      1.000     C          -0.001176           
         C19       1.0000    0.28640   0.23450   0.41380   Biso      1.000     C          -0.074514           
         C20       1.0000    0.29090   0.32840   0.59960   Biso      1.000     C          -0.09057  
         C21       1.0000    0.48503   0.49050   0.87130   Biso      1.000     C          0.537284  
         C22       1.0000    0.57963   0.49550   0.80630   Biso      1.000     C          -0.00105  
         C23       1.0000    0.62423   0.40040   0.72880   Biso      1.000     C          -0.090631           
         C24       1.0000    0.81837   0.12870   0.61920   Biso      1.000     C          0.537367  
         C25       1.0000    0.04693   0.76550   0.17930   Biso      1.000     C          -0.075862           
         C26       1.0000    0.29090   0.67160   0.40040   Biso      1.000     C          -0.090586           
         C27       1.0000    0.18163   0.61920   0.12870   Biso      1.000     C          0.537496  
         C28       1.0000    0.08703   0.68920   0.19370   Biso      1.000     C          -0.001518           
         C29       1.0000    0.75370   0.49550   0.68920   Biso      1.000     C          -0.001623           
         C30       1.0000    0.71360   0.58620   0.76550   Biso      1.000     C          -0.075795           
         C31       1.0000    0.70910   0.40040   0.67160   Biso      1.000     C          -0.090902           
         C32       1.0000    0.51497   0.12870   0.50950   Biso      1.000     C          0.537418  
         C33       1.0000    0.42037   0.19370   0.50450   Biso      1.000     C          -0.001533           
         C34       1.0000    0.38027   0.17930   0.41380   Biso      1.000     C          -0.075903           
         C35       1.0000    0.37577   0.27120   0.59960   Biso      1.000     C          -0.090937           
         C36       1.0000    0.18163   0.38080   0.87130   Biso      1.000     C          0.537499  
         C37       1.0000    0.08703   0.31080   0.80630   Biso      1.000     C          -0.001522           
         C38       1.0000    0.84830   0.49050   0.61920   Biso      1.000     C          0.537472  
         C39       1.0000    0.04243   0.32840   0.72880   Biso      1.000     C          -0.090903           
         C40       1.0000    0.04693   0.23450   0.82070   Biso      1.000     C          -0.075869           
         C41       1.0000    0.38027   0.82070   0.58620   Biso      1.000     C          -0.075936           
         C42       1.0000    0.42037   0.80630   0.49550   Biso      1.000     C          -0.001516           
         C43       1.0000    0.51497   0.87130   0.49050   Biso      1.000     C          0.537444  
         C44       1.0000    0.37577   0.72880   0.40040   Biso      1.000     C          -0.090901           
         C45       1.0000    0.71360   0.41380   0.23450   Biso      1.000     C          -0.075017           
         C46       1.0000    0.75370   0.50450   0.31080   Biso      1.000     C          -0.001705           
         C47       1.0000    0.84830   0.50950   0.38080   Biso      1.000     C          0.537497  
         C48       1.0000    0.70910   0.59960   0.32840   Biso      1.000     C          -0.090554           
         H1        1.0000    0.42290   0.12292   0.33903   Biso      1.000     H          0.121809  
         H2        1.0000    0.08956   0.78389   0.12292   Biso      1.000     H          0.121816  
         H3        1.0000    0.41250   0.28393   0.67474   Biso      1.000     H          0.110917  
         H4        1.0000    0.08956   0.21611   0.87708   Biso      1.000     H          0.121818  
         H5        1.0000    0.07916   0.39081   0.71608   Biso      1.000     H          0.11094   
         H6        1.0000    0.75623   0.33903   0.21611   Biso      1.000     H          0.121741  
         H7        1.0000    0.74583   0.67474   0.39081   Biso      1.000     H          0.110923  
         H8        1.0000    0.42290   0.87708   0.66097   Biso      1.000     H          0.121807  
         H9        1.0000    0.41250   0.71607   0.32526   Biso      1.000     H          0.11088   
         H10       1.0000    0.07916   0.60919   0.28392   Biso      1.000     H          0.110941  
         H11       1.0000    0.57710   0.33903   0.12292   Biso      1.000     H          0.121763  
         H12       1.0000    0.92144   0.71546   0.39062   Biso      1.000     H          0.111022  
         H13       1.0000    0.24460   0.78472   0.66155   Biso      1.000     H          0.12178   
         H14       1.0000    0.25477   0.60938   0.32484   Biso      1.000     H          0.110999  
         H15       1.0000    0.58750   0.67474   0.28393   Biso      1.000     H          0.110858  
         H16       1.0000    0.91128   0.12317   0.78471   Biso      1.000     H          0.121862  
         H17       1.0000    0.25477   0.39062   0.67516   Biso      1.000     H          0.110998  
         H18       1.0000    0.92144   0.28454   0.60938   Biso      1.000     H          0.111024  
         H19       1.0000    0.24460   0.21528   0.33845   Biso      1.000     H          0.121777  
         H20       1.0000    0.74583   0.32526   0.60919   Biso      1.000     H          0.110952  
         H21       1.0000    0.91128   0.87683   0.21529   Biso      1.000     H          0.121851  
         H22       1.0000    0.75623   0.66097   0.78389   Biso      1.000     H          0.121787  
         H23       1.0000    0.58810   0.32484   0.71546   Biso      1.000     H          0.11099   
         H24       1.0000    0.57793   0.66155   0.87683   Biso      1.000     H          0.121842  
         In1       1.0000    0.00000   0.50000   0.50000   Biso      1.000     In          1.362674  
         In2       1.0000    0.66667   0.00000   0.50000   Biso      1.000     In          1.362606  
         In3       1.0000    0.33333   0.50000   0.00000   Biso      1.000     In          1.362698  
         O1        1.0000    0.89710   0.57840   0.64520   Biso      1.000     O          -0.481723           
         O2        1.0000    0.87420   0.41350   0.54160   Biso      1.000     O          -0.462129           
         O3        1.0000    0.56377   0.06680   0.42160   Biso      1.000     O          -0.481631           
         O4        1.0000    0.54087   0.12810   0.58650   Biso      1.000     O          -0.462083           
         O5        1.0000    0.23043   0.35480   0.93320   Biso      1.000     O          -0.481727           
         O6        1.0000    0.20753   0.45840   0.87190   Biso      1.000     O          -0.462195           
         O7        1.0000    0.89710   0.42160   0.35480   Biso      1.000     O          -0.481686           
         O8        1.0000    0.87420   0.58650   0.45840   Biso      1.000     O          -0.462148           
         O9        1.0000    0.56377   0.93320   0.57840   Biso      1.000     O          -0.481603           
         O10       1.0000    0.10290   0.35480   0.42160   Biso      1.000     O          -0.481323           
         O11       1.0000    0.23043   0.64520   0.06680   Biso      1.000     O          -0.48171  
         O12       1.0000    0.20753   0.54160   0.12810   Biso      1.000     O          -0.46219  
         O13       1.0000    0.76957   0.93320   0.35480   Biso      1.000     O          -0.481303           
         O14       1.0000    0.79247   0.87190   0.45840   Biso      1.000     O          -0.461814           
         O15       1.0000    0.10290   0.64520   0.57840   Biso      1.000     O          -0.481337           
         O16       1.0000    0.12580   0.54160   0.41350   Biso      1.000     O          -0.461831           
         O17       1.0000    0.43623   0.42160   0.06680   Biso      1.000     O          -0.481751           
         O18       1.0000    0.45913   0.58650   0.12810   Biso      1.000     O          -0.462035           
         O19       1.0000    0.76957   0.06680   0.64520   Biso      1.000     O          -0.481329           
         O20       1.0000    0.45913   0.41350   0.87190   Biso      1.000     O          -0.461771           
         O21       1.0000    0.43623   0.57840   0.93320   Biso      1.000     O          -0.481321           
         O22       1.0000    0.12580   0.45840   0.58650   Biso      1.000     O          -0.461806           
         O23       1.0000    0.79247   0.12810   0.54160   Biso      1.000     O          -0.461878           
         O24       1.0000    0.54087   0.87190   0.41350   Biso      1.000     O          -0.46199 