
##########################################################################
#               Crystallographic Information Format file
#               Produced by PyCifRW module
#
#  This is a CIF file.  CIF has been adopted by the International
#  Union of Crystallography as the standard for data archiving and
#  transmission.
#
#  For information on this file format, follow the CIF links at
#  http://www.iucr.org
##########################################################################

data_image0

_cell_length_a                          6.258
_cell_length_b                          15.526
_cell_length_c                          15.526
_cell_angle_alpha                       120
_cell_angle_beta                        90
_cell_angle_gamma                       90
_symmetry_space_group_name_H-M          'P 1'
_symmetry_int_tables_number             1
loop_
  _symmetry_equiv_pos_as_xyz
         'x, y, z' 
loop_
  _atom_site_label
  _atom_site_occupancy
  _atom_site_fract_x
  _atom_site_fract_y
  _atom_site_fract_z
  _atom_site_thermal_displace_type
  _atom_site_B_iso_or_equiv
  _atom_site_type_symbol
  _atom_site_charge
         C1        1.0000    0.04123   0.89280   0.79530   Biso      1.000     C          0.015705  
         C2        1.0000    0.17427   0.16350   0.07210   Biso      1.000     C          -0.11897999999999999          
         C3        1.0000    0.17447   0.16930   0.59340   Biso      1.000     C          -0.12043800000000002          
         C4        1.0000    0.05627   0.17400   0.51980   Biso      1.000     C          0.104077  
         C5        1.0000    0.32617   0.23200   0.26330   Biso      1.000     C          0.09642300000000001           
         C6        1.0000    0.32747   0.10210   0.40540   Biso      1.000     C          0.104203  
         C7        1.0000    0.18343   0.81110   0.79230   Biso      1.000     C          0.5663189999999999  
         C8        1.0000    0.18203   0.52230   0.87400   Biso      1.000     C          0.565304  
         C9        1.0000    0.45467   0.09190   0.47220   Biso      1.000     C          -0.132761           
         C10       1.0000    0.72383   0.98910   0.84180   Biso      1.000     C          0.106188  
         C11       1.0000    0.12133   0.38030   0.90810   Biso      1.000     C          -0.13273800000000002          
         C12       1.0000    0.84093   0.90860   0.83650   Biso      1.000     C          -0.11780499999999999          
         C13       1.0000    0.84113   0.42410   0.83070   Biso      1.000     C          -0.120431           
         C14       1.0000    0.12073   0.95340   0.75910   Biso      1.000     C          -0.13226  
         C15       1.0000    0.72293   0.34580   0.82600   Biso      1.000     C          0.104104  
         C16       1.0000    0.99283   0.03130   0.76800   Biso      1.000     C          0.09647   
         C17       1.0000    0.99413   0.30330   0.89790   Biso      1.000     C          0.104253  
         C18       1.0000    0.04263   0.44160   0.87250   Biso      1.000     C          0.018869999999999998          
         C19       1.0000    0.37597   0.12750   0.56910   Biso      1.000     C          0.018890999999999998          
         C20       1.0000    0.45407   0.24090   0.19430   Biso      1.000     C          -0.131827           
         C21       1.0000    0.37457   0.20470   0.09750   Biso      1.000     C          0.013637  
         C22       1.0000    0.85010   0.98120   0.18890   Biso      1.000     C          0.566338  
         C23       1.0000    0.84870   0.35170   0.47770   Biso      1.000     C          0.565353  
         C24       1.0000    0.70790   0.90250   0.10720   Biso      1.000     C          0.015657  
         C25       1.0000    0.05717   0.15820   0.14730   Biso      1.000     C          0.10819000000000001           
         C26       1.0000    0.70930   0.43090   0.55840   Biso      1.000     C          0.018851  
         C27       1.0000    0.78800   0.52780   0.61970   Biso      1.000     C          -0.132711           
         C28       1.0000    0.50760   0.92790   0.09140   Biso      1.000     C          -0.118078           
         C29       1.0000    0.39050   0.85270   0.01090   Biso      1.000     C          0.10567599999999999           
         C30       1.0000    0.78740   0.80570   0.04660   Biso      1.000     C          -0.132128           
         C31       1.0000    0.38960   0.48020   0.65420   Biso      1.000     C          0.103993  
         C32       1.0000    0.65950   0.73670   0.96870   Biso      1.000     C          0.096703  
         C33       1.0000    0.66080   0.59460   0.69670   Biso      1.000     C          0.10411400000000001           
         C34       1.0000    0.51677   0.20770   0.01880   Biso      1.000     C          0.566573  
         C35       1.0000    0.51537   0.12600   0.64830   Biso      1.000     C          0.565291  
         C36       1.0000    0.50780   0.40660   0.57590   Biso      1.000     C          -0.120413           
         H1        1.0000    0.95258   0.78504   0.06153   Biso      1.000     H          0.12385399999999999           
         H2        1.0000    0.11042   0.13572   0.99379   Biso      1.000     H          0.12562   
         H3        1.0000    0.61935   0.05586   0.45090   Biso      1.000     H          0.12507100000000002           
         H4        1.0000    0.89017   0.12433   0.13082   Biso      1.000     H          0.075641  
         H5        1.0000    0.72129   0.67311   0.74914   Biso      1.000     H          0.091723  
         H6        1.0000    0.44278   0.32821   0.52692   Biso      1.000     H          0.12231600000000001           
         H7        1.0000    0.22109   0.46338   0.66958   Biso      1.000     H          0.078329  
         H8        1.0000    0.22350   0.86918   0.99352   Biso      1.000     H          0.07586   
         H9        1.0000    0.10945   0.19870   0.67179   Biso      1.000     H          0.12230899999999999           
         H10       1.0000    0.72065   0.65796   0.91775   Biso      1.000     H          0.09692200000000001           
         H11       1.0000    0.61925   0.27649   0.21496   Biso      1.000     H          0.123249  
         H12       1.0000    0.05462   0.25086   0.92397   Biso      1.000     H          0.091458  
         H13       1.0000    0.38732   0.25979   0.34204   Biso      1.000     H          0.096955  
         H14       1.0000    0.38796   0.07603   0.32689   Biso      1.000     H          0.09174199999999999           
         H15       1.0000    0.55683   0.00648   0.87567   Biso      1.000     H          0.075652  
         H16       1.0000    0.28601   0.39504   0.94414   Biso      1.000     H          0.1251    
         H17       1.0000    0.76783   0.86084   0.86565   Biso      1.000     H          0.12601800000000002           
         H18       1.0000    0.05398   0.08225   0.74021   Biso      1.000     H          0.096881  
         H19       1.0000    0.77611   0.47308   0.80130   Biso      1.000     H          0.122392  
         H20       1.0000    0.95268   0.54910   0.60496   Biso      1.000     H          0.125069  
         H21       1.0000    0.28591   0.93847   0.72351   Biso      1.000     H          0.12380899999999999           
         H22       1.0000    0.55442   0.33042   0.79380   Biso      1.000     H          0.07836900000000001           
         H23       1.0000    0.88776   0.20620   0.53662   Biso      1.000     H          0.078297  
         H24       1.0000    0.43450   0.00481   0.13916   Biso      1.000     H          0.126051  
         N1        1.0000    0.46500   0.57220   0.71410   Biso      1.000     N          -0.23250700000000002          
         N2        1.0000    0.46460   0.76180   0.95280   Biso      1.000     N          -0.230052           
         N3        1.0000    0.13127   0.19100   0.23820   Biso      1.000     N          -0.230223           
         N4        1.0000    0.13167   0.14190   0.42780   Biso      1.000     N          -0.232557           
         N5        1.0000    0.79793   0.04720   0.80900   Biso      1.000     N          -0.22993400000000003          
         N6        1.0000    0.79833   0.28590   0.85810   Biso      1.000     N          -0.23264899999999997          
         O1        1.0000    0.37333   0.52410   0.89220   Biso      1.000     O          -0.55205  
         O2        1.0000    0.75190   0.27120   0.41920   Biso      1.000     O          -0.5528420000000001           
         O3        1.0000    0.37353   0.80940   0.77500   Biso      1.000     O          -0.546788           
         O4        1.0000    0.75150   0.06150   0.24780   Biso      1.000     O          -0.559463           
         O5        1.0000    0.04020   0.96560   0.19060   Biso      1.000     O          -0.5467920000000001           
         O6        1.0000    0.41857   0.14800   0.72880   Biso      1.000     O          -0.553021           
         O7        1.0000    0.41817   0.18630   0.93850   Biso      1.000     O          -0.559479           
         O8        1.0000    0.70667   0.10780   0.63190   Biso      1.000     O          -0.5519109999999999           
         O9        1.0000    0.70687   0.22500   0.03440   Biso      1.000     O          -0.546006           
         O10       1.0000    0.08523   0.58080   0.85200   Biso      1.000     O          -0.552765           
         O11       1.0000    0.08483   0.75220   0.81370   Biso      1.000     O          -0.5594680000000001           
         O12       1.0000    0.04000   0.36810   0.47590   Biso      1.000     O          -0.552027           
         Zn1       1.0000    0.28488   0.66666   0.83339   Biso      1.000     Zn          0.760239  
         Zn2       1.0000    0.61822   0.16661   0.83327   Biso      1.000     Zn          0.760433  
         Zn3       1.0000    0.95155   0.16673   0.33334   Biso      1.000     Zn          0.7605649999999999 