
##########################################################################
#               Crystallographic Information Format file
#               Produced by PyCifRW module
#
#  This is a CIF file.  CIF has been adopted by the International
#  Union of Crystallography as the standard for data archiving and
#  transmission.
#
#  For information on this file format, follow the CIF links at
#  http://www.iucr.org
##########################################################################

data_image0

_cell_length_a                          17.219
_cell_length_b                          23.0847
_cell_length_c                          23.0847
_cell_angle_alpha                       60.5405
_cell_angle_beta                        68.1021
_cell_angle_gamma                       68.1022
_symmetry_space_group_name_H-M          'P 1'
_symmetry_int_tables_number             1
loop_
  _symmetry_equiv_pos_as_xyz
         'x, y, z' 
loop_
  _atom_site_label
  _atom_site_occupancy
  _atom_site_fract_x
  _atom_site_fract_y
  _atom_site_fract_z
  _atom_site_thermal_displace_type
  _atom_site_B_iso_or_equiv
  _atom_site_type_symbol
  _atom_site_charge
         C1        1.0000    0.81662   0.73388   0.94208   Biso      1.000     C          -0.091419           
         C2        1.0000    0.46873   0.08283   0.20551   Biso      1.000     C          -0.20803400000000002          
         C3        1.0000    0.45753   0.04329   0.38725   Biso      1.000     C          0.631147  
         C4        1.0000    0.55211   0.40996   0.50862   Biso      1.000     C          -0.137863           
         C5        1.0000    0.59329   0.37210   0.46812   Biso      1.000     C          -0.18278699999999998          
         C6        1.0000    0.70578   0.37703   0.24341   Biso      1.000     C          -0.198382           
         C7        1.0000    0.81662   0.44208   0.23388   Biso      1.000     C          -0.091415           
         C8        1.0000    0.82371   0.43052   0.17906   Biso      1.000     C          -0.047374           
         C9        1.0000    0.76624   0.39791   0.18441   Biso      1.000     C          -0.08694  
         C10       1.0000    0.70046   0.38437   0.29991   Biso      1.000     C          0.20872600000000002           
         C11       1.0000    0.75707   0.41717   0.29449   Biso      1.000     C          -0.20536100000000002          
         C12       1.0000    0.88807   0.45671   0.11275   Biso      1.000     C          0.6310859999999999  
         C13       1.0000    0.47069   0.49138   0.59004   Biso      1.000     C          -0.137467           
         C14       1.0000    0.43351   0.53188   0.62790   Biso      1.000     C          -0.182669           
         C15       1.0000    0.32622   0.75659   0.62297   Biso      1.000     C          -0.19934000000000002          
         C16       1.0000    0.49258   0.76612   0.55792   Biso      1.000     C          -0.090377           
         C17       1.0000    0.43329   0.82094   0.56948   Biso      1.000     C          -0.047147           
         C18       1.0000    0.34856   0.81559   0.60209   Biso      1.000     C          -0.08973400000000001          
         C19       1.0000    0.38474   0.70009   0.61563   Biso      1.000     C          0.208813  
         C20       1.0000    0.46873   0.70551   0.58283   Biso      1.000     C          -0.208044           
         C21       1.0000    0.45753   0.88725   0.54329   Biso      1.000     C          0.6311859999999999  
         C22       1.0000    0.55211   0.00862   0.90996   Biso      1.000     C          -0.137857           
         C23       1.0000    0.59329   0.96812   0.87210   Biso      1.000     C          -0.1828   
         C24       1.0000    0.70578   0.74341   0.87703   Biso      1.000     C          -0.198383           
         C25       1.0000    0.82371   0.67906   0.93052   Biso      1.000     C          -0.047367           
         C26       1.0000    0.76624   0.68441   0.89791   Biso      1.000     C          -0.086937           
         C27       1.0000    0.70046   0.79991   0.88437   Biso      1.000     C          0.208727  
         C28       1.0000    0.75707   0.79449   0.91717   Biso      1.000     C          -0.205354           
         C29       1.0000    0.52931   0.90996   0.00862   Biso      1.000     C          -0.137467           
         C30       1.0000    0.56649   0.87210   0.96812   Biso      1.000     C          -0.182666           
         C31       1.0000    0.38474   0.11563   0.20009   Biso      1.000     C          0.208779  
         C32       1.0000    0.67378   0.87703   0.74341   Biso      1.000     C          -0.19933299999999998          
         C33       1.0000    0.34856   0.10209   0.31559   Biso      1.000     C          -0.089758           
         C34       1.0000    0.49258   0.05792   0.26612   Biso      1.000     C          -0.090373           
         C35       1.0000    0.47907   0.02093   0.02093   Biso      1.000     C          0.061942  
         C36       1.0000    0.40156   0.09844   0.09844   Biso      1.000     C          0.21161100000000002           
         C37       1.0000    0.52093   0.47907   0.47907   Biso      1.000     C          0.061952999999999994          
         C38       1.0000    0.59844   0.40156   0.40156   Biso      1.000     C          0.211644  
         C39       1.0000    0.52093   0.97907   0.97907   Biso      1.000     C          0.061965  
         C40       1.0000    0.59844   0.90156   0.90156   Biso      1.000     C          0.21167800000000003           
         C41       1.0000    0.47907   0.52093   0.52093   Biso      1.000     C          0.061951  
         C42       1.0000    0.40156   0.59844   0.59844   Biso      1.000     C          0.21164499999999997           
         C43       1.0000    0.52931   0.50862   0.40996   Biso      1.000     C          -0.137461           
         C44       1.0000    0.56649   0.46812   0.37210   Biso      1.000     C          -0.182637           
         C45       1.0000    0.67378   0.24341   0.37703   Biso      1.000     C          -0.19934000000000002          
         C46       1.0000    0.50742   0.23388   0.44208   Biso      1.000     C          -0.090377           
         C47       1.0000    0.56671   0.17906   0.43052   Biso      1.000     C          -0.047147           
         C48       1.0000    0.65144   0.18441   0.39791   Biso      1.000     C          -0.08973400000000001          
         C49       1.0000    0.61526   0.29991   0.38437   Biso      1.000     C          0.208813  
         C50       1.0000    0.53127   0.29449   0.41717   Biso      1.000     C          -0.208044           
         C51       1.0000    0.54247   0.11275   0.45671   Biso      1.000     C          0.6311859999999999  
         C52       1.0000    0.44789   0.99138   0.09004   Biso      1.000     C          -0.137849           
         C53       1.0000    0.40671   0.03188   0.12790   Biso      1.000     C          -0.18276199999999998          
         C54       1.0000    0.29422   0.25659   0.12297   Biso      1.000     C          -0.198383           
         C55       1.0000    0.18338   0.26612   0.05792   Biso      1.000     C          -0.091419           
         C56       1.0000    0.17629   0.32094   0.06948   Biso      1.000     C          -0.047367           
         C57       1.0000    0.23376   0.31559   0.10209   Biso      1.000     C          -0.086936           
         C58       1.0000    0.29954   0.20009   0.11563   Biso      1.000     C          0.20872600000000002           
         C59       1.0000    0.24293   0.20551   0.08283   Biso      1.000     C          -0.205354           
         C60       1.0000    0.11193   0.38725   0.04329   Biso      1.000     C          0.631087  
         C61       1.0000    0.47069   0.09004   0.99138   Biso      1.000     C          -0.13746  
         C62       1.0000    0.43351   0.12790   0.03188   Biso      1.000     C          -0.182627           
         C63       1.0000    0.32622   0.12297   0.25659   Biso      1.000     C          -0.199309           
         C64       1.0000    0.43329   0.06948   0.32094   Biso      1.000     C          -0.047125           
         C65       1.0000    0.50742   0.94208   0.73388   Biso      1.000     C          -0.090374           
         C66       1.0000    0.88807   0.61275   0.95671   Biso      1.000     C          0.631087  
         C67       1.0000    0.65144   0.89791   0.68441   Biso      1.000     C          -0.089742           
         C68       1.0000    0.11193   0.54329   0.88725   Biso      1.000     C          0.6310859999999999  
         C69       1.0000    0.24293   0.58283   0.70551   Biso      1.000     C          -0.20536100000000002          
         C70       1.0000    0.29954   0.61563   0.70009   Biso      1.000     C          0.208715  
         C71       1.0000    0.23376   0.60209   0.81559   Biso      1.000     C          -0.08695800000000001          
         C72       1.0000    0.17629   0.56948   0.82094   Biso      1.000     C          -0.047375           
         C73       1.0000    0.18338   0.55792   0.76612   Biso      1.000     C          -0.091411           
         C74       1.0000    0.56671   0.93052   0.67906   Biso      1.000     C          -0.047126999999999995         
         C75       1.0000    0.40671   0.62790   0.53188   Biso      1.000     C          -0.182756           
         C76       1.0000    0.29422   0.62297   0.75659   Biso      1.000     C          -0.198355           
         C77       1.0000    0.44789   0.59004   0.49138   Biso      1.000     C          -0.137857           
         C78       1.0000    0.54247   0.95671   0.61275   Biso      1.000     C          0.631146  
         C79       1.0000    0.53127   0.91717   0.79449   Biso      1.000     C          -0.20803400000000002          
         C80       1.0000    0.61526   0.88437   0.79991   Biso      1.000     C          0.20879099999999998           
         H1        1.0000    0.85170   0.73040   0.96660   Biso      1.000     H          0.11917699999999999           
         H2        1.0000    0.66660   0.74530   0.85690   Biso      1.000     H          0.12132000000000001           
         H3        1.0000    0.61720   0.98870   0.82550   Biso      1.000     H          0.12389100000000002           
         H4        1.0000    0.54630   0.05570   0.88770   Biso      1.000     H          0.11211099999999999           
         H5        1.0000    0.30710   0.85260   0.60960   Biso      1.000     H          0.119805  
         H6        1.0000    0.76930   0.64740   0.89040   Biso      1.000     H          0.11761300000000001           
         H7        1.0000    0.54870   0.76960   0.53340   Biso      1.000     H          0.120119  
         H8        1.0000    0.26880   0.75470   0.64310   Biso      1.000     H          0.12248800000000001           
         H9        1.0000    0.43140   0.51130   0.67450   Biso      1.000     H          0.124203  
         H10       1.0000    0.51020   0.66770   0.57730   Biso      1.000     H          0.122349  
         H11       1.0000    0.75520   0.83230   0.92270   Biso      1.000     H          0.121921  
         H12       1.0000    0.73120   0.85690   0.74530   Biso      1.000     H          0.122494  
         H13       1.0000    0.56860   0.82550   0.98870   Biso      1.000     H          0.124203  
         H14       1.0000    0.45130   0.96660   0.73040   Biso      1.000     H          0.120124  
         H15       1.0000    0.69290   0.89040   0.64740   Biso      1.000     H          0.11980299999999999           
         H16       1.0000    0.48980   0.92270   0.83230   Biso      1.000     H          0.122351  
         H17       1.0000    0.48970   0.44430   0.61230   Biso      1.000     H          0.111792  
         H18       1.0000    0.38280   0.67450   0.51130   Biso      1.000     H          0.12388699999999998           
         H19       1.0000    0.33340   0.64310   0.75470   Biso      1.000     H          0.12131700000000001           
         H20       1.0000    0.14830   0.53340   0.76960   Biso      1.000     H          0.119175  
         H21       1.0000    0.24480   0.57730   0.66770   Biso      1.000     H          0.121922  
         H22       1.0000    0.23070   0.60960   0.85260   Biso      1.000     H          0.11761600000000001           
         H23       1.0000    0.51030   0.88770   0.05570   Biso      1.000     H          0.11179000000000001           
         H24       1.0000    0.45370   0.61230   0.44430   Biso      1.000     H          0.11211700000000001           
         H25       1.0000    0.76930   0.39040   0.14740   Biso      1.000     H          0.11761400000000001           
         H26       1.0000    0.85170   0.46660   0.23040   Biso      1.000     H          0.119175  
         H27       1.0000    0.51030   0.55570   0.38770   Biso      1.000     H          0.111792  
         H28       1.0000    0.56860   0.48870   0.32550   Biso      1.000     H          0.124201  
         H29       1.0000    0.73120   0.24530   0.35690   Biso      1.000     H          0.12248800000000001           
         H30       1.0000    0.45130   0.23040   0.46660   Biso      1.000     H          0.120119  
         H31       1.0000    0.75520   0.42270   0.33230   Biso      1.000     H          0.121922  
         H32       1.0000    0.48980   0.33230   0.42270   Biso      1.000     H          0.122349  
         H33       1.0000    0.45370   0.94430   0.11230   Biso      1.000     H          0.11210999999999999           
         H34       1.0000    0.38280   0.01130   0.17450   Biso      1.000     H          0.12388800000000001           
         H35       1.0000    0.33340   0.25470   0.14310   Biso      1.000     H          0.12132000000000001           
         H36       1.0000    0.14830   0.26960   0.03340   Biso      1.000     H          0.11917699999999999           
         H37       1.0000    0.69290   0.14740   0.39040   Biso      1.000     H          0.119804  
         H38       1.0000    0.24480   0.16770   0.07730   Biso      1.000     H          0.121921  
         H39       1.0000    0.23070   0.35260   0.10960   Biso      1.000     H          0.11761300000000001           
         H40       1.0000    0.66660   0.35690   0.24530   Biso      1.000     H          0.12131900000000001           
         H41       1.0000    0.54630   0.38770   0.55570   Biso      1.000     H          0.11211700000000001           
         H42       1.0000    0.51020   0.07730   0.16770   Biso      1.000     H          0.122351  
         H43       1.0000    0.61720   0.32550   0.48870   Biso      1.000     H          0.12388900000000001           
         H44       1.0000    0.54870   0.03340   0.26960   Biso      1.000     H          0.120124  
         H45       1.0000    0.26880   0.14310   0.25470   Biso      1.000     H          0.122492  
         H46       1.0000    0.43140   0.17450   0.01130   Biso      1.000     H          0.124199  
         H47       1.0000    0.48970   0.11230   0.94430   Biso      1.000     H          0.11179000000000001           
         H48       1.0000    0.30710   0.10960   0.35260   Biso      1.000     H          0.119804  
         N1        1.0000    0.63847   0.86153   0.86153   Biso      1.000     N          -0.18679400000000002          
         N2        1.0000    0.36153   0.13847   0.13847   Biso      1.000     N          -0.186788           
         N3        1.0000    0.36153   0.63847   0.63847   Biso      1.000     N          -0.186784           
         N4        1.0000    0.63847   0.36153   0.36153   Biso      1.000     N          -0.18678499999999998          
         O1        1.0000    0.40076   0.93425   0.55693   Biso      1.000     O          -0.5859300000000001           
         O2        1.0000    0.93458   0.48867   0.11061   Biso      1.000     O          -0.588601           
         O3        1.0000    0.89194   0.44307   0.06575   Biso      1.000     O          -0.58498  
         O4        1.0000    0.53386   0.88939   0.51133   Biso      1.000     O          -0.588436           
         O5        1.0000    0.06542   0.38939   0.01133   Biso      1.000     O          -0.588607           
         O6        1.0000    0.40076   0.05693   0.43425   Biso      1.000     O          -0.585924           
         O7        1.0000    0.53386   0.01133   0.38939   Biso      1.000     O          -0.588425           
         O8        1.0000    0.10806   0.43425   0.05693   Biso      1.000     O          -0.584991           
         O9        1.0000    0.89194   0.56575   0.94307   Biso      1.000     O          -0.584991           
         O10       1.0000    0.59924   0.06575   0.44307   Biso      1.000     O          -0.5859300000000001           
         O11       1.0000    0.59924   0.94307   0.56575   Biso      1.000     O          -0.585925           
         O12       1.0000    0.46614   0.98867   0.61061   Biso      1.000     O          -0.588425           
         O13       1.0000    0.10806   0.55693   0.93425   Biso      1.000     O          -0.584979           
         O14       1.0000    0.06542   0.51133   0.88939   Biso      1.000     O          -0.588601           
         O15       1.0000    0.46614   0.11061   0.48867   Biso      1.000     O          -0.588436           
         O16       1.0000    0.93458   0.61061   0.98867   Biso      1.000     O          -0.588607           
         Zn1       1.0000    0.58825   0.97000   0.47000   Biso      1.000     Zn          1.049909  
         Zn2       1.0000    0.02825   0.53000   0.03000   Biso      1.000     Zn          1.048899  
         Zn3       1.0000    0.41175   0.03000   0.53000   Biso      1.000     Zn          1.049909  
         Zn4       1.0000    0.97175   0.47000   0.97000   Biso      1.000     Zn          1.048899 