
##########################################################################
#               Crystallographic Information Format file
#               Produced by PyCifRW module
#
#  This is a CIF file.  CIF has been adopted by the International
#  Union of Crystallography as the standard for data archiving and
#  transmission.
#
#  For information on this file format, follow the CIF links at
#  http://www.iucr.org
##########################################################################

data_image0

_cell_length_a                          18.833
_cell_length_b                          22.7803
_cell_length_c                          22.7803
_cell_angle_alpha                       60.3917
_cell_angle_beta                        65.5838
_cell_angle_gamma                       65.5838
_symmetry_space_group_name_H-M          'P 1'
_symmetry_int_tables_number             1
loop_
  _symmetry_equiv_pos_as_xyz
         'x, y, z' 
loop_
  _atom_site_label
  _atom_site_occupancy
  _atom_site_fract_x
  _atom_site_fract_y
  _atom_site_fract_z
  _atom_site_thermal_displace_type
  _atom_site_B_iso_or_equiv
  _atom_site_type_symbol
  _atom_site_charge
         C1        1.0000    0.81445   0.73005   0.93305   Biso      1.000     C          -0.08985399999999999          
         C2        1.0000    0.45611   0.09089   0.20889   Biso      1.000     C          -0.203471           
         C3        1.0000    0.34412   0.10898   0.32458   Biso      1.000     C          -0.086499           
         C4        1.0000    0.56750   0.46660   0.36920   Biso      1.000     C          -0.189138           
         C5        1.0000    0.52910   0.50780   0.41040   Biso      1.000     C          -0.136155           
         C6        1.0000    0.71822   0.36968   0.23608   Biso      1.000     C          -0.202355           
         C7        1.0000    0.81445   0.43305   0.23005   Biso      1.000     C          -0.08985399999999999          
         C8        1.0000    0.82555   0.42278   0.17312   Biso      1.000     C          -0.031716           
         C9        1.0000    0.70553   0.37677   0.29437   Biso      1.000     C          0.211062  
         C10       1.0000    0.88853   0.44797   0.10917   Biso      1.000     C          0.625015  
         C11       1.0000    0.75589   0.40911   0.29111   Biso      1.000     C          -0.205021           
         C12       1.0000    0.77768   0.39102   0.17542   Biso      1.000     C          -0.086069           
         C13       1.0000    0.40330   0.63080   0.53340   Biso      1.000     C          -0.189445           
         C14       1.0000    0.44730   0.58960   0.49220   Biso      1.000     C          -0.135778           
         C15       1.0000    0.32398   0.76392   0.63032   Biso      1.000     C          -0.199956           
         C16       1.0000    0.47755   0.76995   0.56695   Biso      1.000     C          -0.088562           
         C17       1.0000    0.42145   0.82688   0.57722   Biso      1.000     C          -0.035041           
         C18       1.0000    0.37667   0.70563   0.62323   Biso      1.000     C          0.21010500000000001           
         C19       1.0000    0.44567   0.89083   0.55203   Biso      1.000     C          0.62693   
         C20       1.0000    0.45611   0.70889   0.59089   Biso      1.000     C          -0.20347300000000001          
         C21       1.0000    0.34412   0.82458   0.60898   Biso      1.000     C          -0.086464           
         C22       1.0000    0.56750   0.86920   0.96660   Biso      1.000     C          -0.189137           
         C23       1.0000    0.52910   0.91040   0.00780   Biso      1.000     C          -0.136159           
         C24       1.0000    0.71822   0.73608   0.86968   Biso      1.000     C          -0.202356           
         C25       1.0000    0.82555   0.67312   0.92278   Biso      1.000     C          -0.031716           
         C26       1.0000    0.70553   0.79437   0.87677   Biso      1.000     C          0.211062  
         C27       1.0000    0.88853   0.60917   0.94797   Biso      1.000     C          0.625015  
         C28       1.0000    0.75589   0.79111   0.90911   Biso      1.000     C          -0.205021           
         C29       1.0000    0.59670   0.96660   0.86920   Biso      1.000     C          -0.189444           
         C30       1.0000    0.55270   0.00780   0.91040   Biso      1.000     C          -0.13578199999999999          
         C31       1.0000    0.44567   0.05203   0.39083   Biso      1.000     C          0.6269279999999999  
         C32       1.0000    0.67602   0.86968   0.73608   Biso      1.000     C          -0.199956           
         C33       1.0000    0.37667   0.12323   0.20563   Biso      1.000     C          0.210075  
         C34       1.0000    0.47755   0.06695   0.26995   Biso      1.000     C          -0.08856699999999999          
         C35       1.0000    0.39670   0.10330   0.10330   Biso      1.000     C          0.200035  
         C36       1.0000    0.47880   0.02120   0.02120   Biso      1.000     C          0.076326  
         C37       1.0000    0.60330   0.39670   0.39670   Biso      1.000     C          0.20004   
         C38       1.0000    0.52120   0.47880   0.47880   Biso      1.000     C          0.076363  
         C39       1.0000    0.60330   0.89670   0.89670   Biso      1.000     C          0.200045  
         C40       1.0000    0.52120   0.97880   0.97880   Biso      1.000     C          0.076399  
         C41       1.0000    0.39670   0.60330   0.60330   Biso      1.000     C          0.20004   
         C42       1.0000    0.47880   0.52120   0.52120   Biso      1.000     C          0.076362  
         C43       1.0000    0.59670   0.36920   0.46660   Biso      1.000     C          -0.189443           
         C44       1.0000    0.55270   0.41040   0.50780   Biso      1.000     C          -0.135747           
         C45       1.0000    0.67602   0.23608   0.36968   Biso      1.000     C          -0.199956           
         C46       1.0000    0.52245   0.23005   0.43305   Biso      1.000     C          -0.088562           
         C47       1.0000    0.57855   0.17312   0.42278   Biso      1.000     C          -0.035041           
         C48       1.0000    0.62333   0.29437   0.37677   Biso      1.000     C          0.21010500000000001           
         C49       1.0000    0.55433   0.10917   0.44797   Biso      1.000     C          0.62693   
         C50       1.0000    0.54389   0.29111   0.40911   Biso      1.000     C          -0.203474           
         C51       1.0000    0.65588   0.17542   0.39102   Biso      1.000     C          -0.086464           
         C52       1.0000    0.43250   0.13080   0.03340   Biso      1.000     C          -0.189137           
         C53       1.0000    0.47090   0.08960   0.99220   Biso      1.000     C          -0.13611800000000002          
         C54       1.0000    0.28178   0.26392   0.13032   Biso      1.000     C          -0.202356           
         C55       1.0000    0.18555   0.26995   0.06695   Biso      1.000     C          -0.08985399999999999          
         C56       1.0000    0.17445   0.32688   0.07722   Biso      1.000     C          -0.031716           
         C57       1.0000    0.29447   0.20563   0.12323   Biso      1.000     C          0.211062  
         C58       1.0000    0.11147   0.39083   0.05203   Biso      1.000     C          0.625015  
         C59       1.0000    0.24411   0.20889   0.09089   Biso      1.000     C          -0.205021           
         C60       1.0000    0.22232   0.32458   0.10898   Biso      1.000     C          -0.08606799999999999          
         C61       1.0000    0.40330   0.03340   0.13080   Biso      1.000     C          -0.189444           
         C62       1.0000    0.44730   0.99220   0.08960   Biso      1.000     C          -0.135742           
         C63       1.0000    0.32398   0.13032   0.26392   Biso      1.000     C          -0.199917           
         C64       1.0000    0.42145   0.07722   0.32688   Biso      1.000     C          -0.035013           
         C65       1.0000    0.52245   0.93305   0.73005   Biso      1.000     C          -0.088563           
         C66       1.0000    0.77768   0.67542   0.89102   Biso      1.000     C          -0.086069           
         C67       1.0000    0.62333   0.87677   0.79437   Biso      1.000     C          0.21010500000000001           
         C68       1.0000    0.22232   0.60898   0.82458   Biso      1.000     C          -0.086095           
         C69       1.0000    0.24411   0.59089   0.70889   Biso      1.000     C          -0.205021           
         C70       1.0000    0.11147   0.55203   0.89083   Biso      1.000     C          0.625015  
         C71       1.0000    0.29447   0.62323   0.70563   Biso      1.000     C          0.211029  
         C72       1.0000    0.17445   0.57722   0.82688   Biso      1.000     C          -0.031712           
         C73       1.0000    0.18555   0.56695   0.76995   Biso      1.000     C          -0.089838           
         C74       1.0000    0.57855   0.92278   0.67312   Biso      1.000     C          -0.035041           
         C75       1.0000    0.47090   0.49220   0.58960   Biso      1.000     C          -0.136122           
         C76       1.0000    0.28178   0.63032   0.76392   Biso      1.000     C          -0.202316           
         C77       1.0000    0.43250   0.53340   0.63080   Biso      1.000     C          -0.189137           
         C78       1.0000    0.65588   0.89102   0.67542   Biso      1.000     C          -0.086464           
         C79       1.0000    0.54389   0.90911   0.79111   Biso      1.000     C          -0.20347300000000001          
         C80       1.0000    0.55433   0.94797   0.60917   Biso      1.000     C          0.62693   
         H1        1.0000    0.84620   0.72840   0.95640   Biso      1.000     H          0.11896300000000001           
         H2        1.0000    0.68480   0.73600   0.84900   Biso      1.000     H          0.11807999999999999           
         H3        1.0000    0.50930   0.88880   0.05600   Biso      1.000     H          0.10993199999999999           
         H4        1.0000    0.56810   0.82220   0.98800   Biso      1.000     H          0.122431  
         H5        1.0000    0.49590   0.66950   0.58510   Biso      1.000     H          0.11919600000000001           
         H6        1.0000    0.75050   0.83050   0.91490   Biso      1.000     H          0.11988199999999999           
         H7        1.0000    0.53100   0.77160   0.54360   Biso      1.000     H          0.117807  
         H8        1.0000    0.26980   0.76400   0.65100   Biso      1.000     H          0.116461  
         H9        1.0000    0.45410   0.61120   0.44400   Biso      1.000     H          0.10999500000000001           
         H10       1.0000    0.30460   0.86340   0.61640   Biso      1.000     H          0.11889100000000001           
         H11       1.0000    0.78440   0.63660   0.88360   Biso      1.000     H          0.117628  
         H12       1.0000    0.73020   0.84900   0.73600   Biso      1.000     H          0.116461  
         H13       1.0000    0.54590   0.05600   0.88880   Biso      1.000     H          0.10999600000000001           
         H14       1.0000    0.46900   0.95640   0.72840   Biso      1.000     H          0.117807  
         H15       1.0000    0.50410   0.91490   0.83050   Biso      1.000     H          0.11919600000000001           
         H16       1.0000    0.69540   0.88360   0.63660   Biso      1.000     H          0.11889100000000001           
         H17       1.0000    0.37830   0.67780   0.51200   Biso      1.000     H          0.122472  
         H18       1.0000    0.49070   0.44400   0.61120   Biso      1.000     H          0.109929  
         H19       1.0000    0.31520   0.65100   0.76400   Biso      1.000     H          0.118077  
         H20       1.0000    0.15380   0.54360   0.77160   Biso      1.000     H          0.11896199999999998           
         H21       1.0000    0.21560   0.61640   0.86340   Biso      1.000     H          0.11763   
         H22       1.0000    0.24950   0.58510   0.66950   Biso      1.000     H          0.11988199999999999           
         H23       1.0000    0.62170   0.98800   0.82220   Biso      1.000     H          0.122472  
         H24       1.0000    0.43190   0.51200   0.67780   Biso      1.000     H          0.122431  
         H25       1.0000    0.75050   0.41490   0.33050   Biso      1.000     H          0.11988299999999999           
         H26       1.0000    0.84620   0.45640   0.22840   Biso      1.000     H          0.11896300000000001           
         H27       1.0000    0.62170   0.32220   0.48800   Biso      1.000     H          0.122472  
         H28       1.0000    0.54590   0.38880   0.55600   Biso      1.000     H          0.10999300000000001           
         H29       1.0000    0.73020   0.23600   0.34900   Biso      1.000     H          0.116461  
         H30       1.0000    0.46900   0.22840   0.45640   Biso      1.000     H          0.117807  
         H31       1.0000    0.78440   0.38360   0.13660   Biso      1.000     H          0.117628  
         H32       1.0000    0.69540   0.13660   0.38360   Biso      1.000     H          0.11889100000000001           
         H33       1.0000    0.43190   0.17780   0.01200   Biso      1.000     H          0.122431  
         H34       1.0000    0.49070   0.11120   0.94400   Biso      1.000     H          0.109929  
         H35       1.0000    0.31520   0.26400   0.15100   Biso      1.000     H          0.11807999999999999           
         H36       1.0000    0.15380   0.27160   0.04360   Biso      1.000     H          0.11896300000000001           
         H37       1.0000    0.50410   0.33050   0.41490   Biso      1.000     H          0.11919600000000001           
         H38       1.0000    0.21560   0.36340   0.11640   Biso      1.000     H          0.117628  
         H39       1.0000    0.24950   0.16950   0.08510   Biso      1.000     H          0.11988199999999999           
         H40       1.0000    0.68480   0.34900   0.23600   Biso      1.000     H          0.11807999999999999           
         H41       1.0000    0.56810   0.48800   0.32220   Biso      1.000     H          0.122431  
         H42       1.0000    0.30460   0.11640   0.36340   Biso      1.000     H          0.118894  
         H43       1.0000    0.50930   0.55600   0.38880   Biso      1.000     H          0.10993199999999999           
         H44       1.0000    0.53100   0.04360   0.27160   Biso      1.000     H          0.117807  
         H45       1.0000    0.26980   0.15100   0.26400   Biso      1.000     H          0.11645799999999999           
         H46       1.0000    0.45410   0.94400   0.11120   Biso      1.000     H          0.10999300000000001           
         H47       1.0000    0.37830   0.01200   0.17780   Biso      1.000     H          0.122472  
         H48       1.0000    0.49590   0.08510   0.16950   Biso      1.000     H          0.11919600000000001           
         N1        1.0000    0.64400   0.85600   0.85600   Biso      1.000     N          -0.174068           
         N2        1.0000    0.35600   0.14400   0.14400   Biso      1.000     N          -0.174065           
         N3        1.0000    0.35600   0.64400   0.64400   Biso      1.000     N          -0.174065           
         N4        1.0000    0.64400   0.35600   0.35600   Biso      1.000     N          -0.174067           
         O1        1.0000    0.39396   0.94142   0.56662   Biso      1.000     O          -0.57329  
         O2        1.0000    0.92639   0.48205   0.11055   Biso      1.000     O          -0.6009979999999999           
         O3        1.0000    0.90200   0.43338   0.05858   Biso      1.000     O          -0.5732109999999999           
         O4        1.0000    0.51899   0.88945   0.51795   Biso      1.000     O          -0.601672           
         O5        1.0000    0.07361   0.38945   0.01795   Biso      1.000     O          -0.600997           
         O6        1.0000    0.39396   0.06662   0.44142   Biso      1.000     O          -0.573289           
         O7        1.0000    0.51899   0.01795   0.38945   Biso      1.000     O          -0.601672           
         O8        1.0000    0.09800   0.44142   0.06662   Biso      1.000     O          -0.5732109999999999           
         O9        1.0000    0.90200   0.55858   0.93338   Biso      1.000     O          -0.5732109999999999           
         O10       1.0000    0.60604   0.05858   0.43338   Biso      1.000     O          -0.57329  
         O11       1.0000    0.60604   0.93338   0.55858   Biso      1.000     O          -0.57329  
         O12       1.0000    0.48101   0.98205   0.61055   Biso      1.000     O          -0.601672           
         O13       1.0000    0.09800   0.56662   0.94142   Biso      1.000     O          -0.5732109999999999           
         O14       1.0000    0.07361   0.51795   0.88945   Biso      1.000     O          -0.6009979999999999           
         O15       1.0000    0.48101   0.11055   0.48205   Biso      1.000     O          -0.601672           
         O16       1.0000    0.92639   0.61055   0.98205   Biso      1.000     O          -0.600997           
         Zn1       1.0000    0.58151   0.96646   0.46646   Biso      1.000     Zn          1.041044  
         Zn2       1.0000    0.01443   0.53354   0.03354   Biso      1.000     Zn          1.040917  
         Zn3       1.0000    0.41849   0.03354   0.53354   Biso      1.000     Zn          1.041044  
         Zn4       1.0000    0.98557   0.46646   0.96646   Biso      1.000     Zn          1.040917 