
##########################################################################
#               Crystallographic Information Format file
#               Produced by PyCifRW module
#
#  This is a CIF file.  CIF has been adopted by the International
#  Union of Crystallography as the standard for data archiving and
#  transmission.
#
#  For information on this file format, follow the CIF links at
#  http://www.iucr.org
##########################################################################

data_image0

_cell_length_a                          9.5856
_cell_length_b                          10.0263
_cell_length_c                          10.0263
_cell_angle_alpha                       107.144
_cell_angle_beta                        109.333
_cell_angle_gamma                       70.6671
_symmetry_space_group_name_H-M          'P 1'
_symmetry_int_tables_number             1
loop_
  _symmetry_equiv_pos_as_xyz
         'x, y, z' 
loop_
  _atom_site_label
  _atom_site_occupancy
  _atom_site_fract_x
  _atom_site_fract_y
  _atom_site_fract_z
  _atom_site_thermal_displace_type
  _atom_site_B_iso_or_equiv
  _atom_site_type_symbol
  _atom_site_charge
         C1        1.0000    0.65720   0.04840   0.80420   Biso      1.000     C          0.680225  
         C2        1.0000    0.65720   0.93940   0.54200   Biso      1.000     C          0.312583  
         C3        1.0000    0.41930   0.08030   0.60170   Biso      1.000     C          -0.21474899999999997          
         C4        1.0000    0.57750   0.02230   0.64670   Biso      1.000     C          -0.16584400000000002          
         C5        1.0000    0.08070   0.60170   0.08030   Biso      1.000     C          -0.214768           
         C6        1.0000    0.15720   0.45800   0.06060   Biso      1.000     C          0.312578  
         C7        1.0000    0.91930   0.39830   0.91970   Biso      1.000     C          -0.214768           
         C8        1.0000    0.07750   0.35330   0.97770   Biso      1.000     C          -0.16580999999999999          
         C9        1.0000    0.15720   0.19580   0.95160   Biso      1.000     C          0.6802199999999999  
         C10       1.0000    0.34280   0.06060   0.45800   Biso      1.000     C          0.312589  
         C11       1.0000    0.58070   0.91970   0.39830   Biso      1.000     C          -0.214743           
         C12       1.0000    0.42250   0.97770   0.35330   Biso      1.000     C          -0.165845           
         C13       1.0000    0.34280   0.95160   0.19580   Biso      1.000     C          0.680225  
         C14       1.0000    0.84280   0.54200   0.93940   Biso      1.000     C          0.312578  
         C15       1.0000    0.84280   0.80420   0.04840   Biso      1.000     C          0.6802199999999999  
         C16       1.0000    0.92250   0.64670   0.02230   Biso      1.000     C          -0.16580999999999999          
         H1        1.0000    0.65260   0.66120   0.89160   Biso      1.000     H          0.38924000000000003           
         H2        1.0000    0.13480   0.67040   0.13340   Biso      1.000     H          0.151506  
         H3        1.0000    0.84740   0.89160   0.66120   Biso      1.000     H          0.38924200000000003           
         H4        1.0000    0.36520   0.13340   0.67040   Biso      1.000     H          0.15151099999999998           
         H5        1.0000    0.34740   0.33880   0.10840   Biso      1.000     H          0.38924000000000003           
         H6        1.0000    0.86520   0.32960   0.86660   Biso      1.000     H          0.151506  
         H7        1.0000    0.15260   0.10840   0.33880   Biso      1.000     H          0.38924200000000003           
         H8        1.0000    0.63480   0.86660   0.32960   Biso      1.000     H          0.15151099999999998           
         Mg1       1.0000    0.50000   0.00000   0.00000   Biso      1.000     Mg          1.464755  
         Mg2       1.0000    0.00000   0.00000   0.00000   Biso      1.000     Mg          1.4647540000000001  
         O1        1.0000    0.41980   0.90260   0.10500   Biso      1.000     O          -0.682211           
         O2        1.0000    0.19680   0.98000   0.16420   Biso      1.000     O          -0.701587           
         O3        1.0000    0.18900   0.12590   0.42650   Biso      1.000     O          -0.501552           
         O4        1.0000    0.08020   0.10500   0.90260   Biso      1.000     O          -0.6822090000000001           
         O5        1.0000    0.30320   0.16420   0.98000   Biso      1.000     O          -0.701587           
         O6        1.0000    0.31100   0.42650   0.12590   Biso      1.000     O          -0.5015470000000001           
         O7        1.0000    0.58020   0.09740   0.89500   Biso      1.000     O          -0.682211           
         O8        1.0000    0.80320   0.02000   0.83580   Biso      1.000     O          -0.701587           
         O9        1.0000    0.81100   0.87410   0.57350   Biso      1.000     O          -0.501551           
         O10       1.0000    0.91980   0.89500   0.09740   Biso      1.000     O          -0.68221  
         O11       1.0000    0.69680   0.83580   0.02000   Biso      1.000     O          -0.701587           
         O12       1.0000    0.68900   0.57350   0.87410   Biso      1.000     O          -0.5015470000000001 