
##########################################################################
#               Crystallographic Information Format file
#               Produced by PyCifRW module
#
#  This is a CIF file.  CIF has been adopted by the International
#  Union of Crystallography as the standard for data archiving and
#  transmission.
#
#  For information on this file format, follow the CIF links at
#  http://www.iucr.org
##########################################################################

data_image0

_cell_length_a                          13.4766
_cell_length_b                          14.4101
_cell_length_c                          15.9898
_cell_angle_alpha                       116.782
_cell_angle_beta                        96.7664
_cell_angle_gamma                       90
_symmetry_space_group_name_H-M          'P 1'
_symmetry_int_tables_number             1
loop_
  _symmetry_equiv_pos_as_xyz
         'x, y, z' 
loop_
  _atom_site_label
  _atom_site_occupancy
  _atom_site_fract_x
  _atom_site_fract_y
  _atom_site_fract_z
  _atom_site_thermal_displace_type
  _atom_site_B_iso_or_equiv
  _atom_site_type_symbol
  _atom_site_charge
         C1        1.0000    0.02140   0.34140   0.19360   Biso      1.000     C          0.5984729999999999  
         C2        1.0000    0.24070   0.31350   0.41140   Biso      1.000     C          -0.014368           
         C3        1.0000    0.29340   0.27340   0.46640   Biso      1.000     C          -0.114152           
         C4        1.0000    0.36090   0.19690   0.42940   Biso      1.000     C          -0.018068           
         C5        1.0000    0.37880   0.16290   0.33700   Biso      1.000     C          -0.16686600000000001          
         C6        1.0000    0.33090   0.20270   0.28260   Biso      1.000     C          0.17893   
         C7        1.0000    0.26190   0.28040   0.32040   Biso      1.000     C          -0.155393           
         C8        1.0000    0.41600   0.15640   0.49380   Biso      1.000     C          0.6627770000000001  
         C9        1.0000    0.16530   0.39300   0.44980   Biso      1.000     C          0.68955   
         C10       1.0000    0.37570   0.20400   0.06920   Biso      1.000     C          0.176805  
         C11       1.0000    0.40740   0.10690   0.01180   Biso      1.000     C          -0.157089           
         C12       1.0000    0.43820   0.08880   0.92580   Biso      1.000     C          -0.091275           
         C13       1.0000    0.43980   0.16530   0.89820   Biso      1.000     C          -0.005788000000000001         
         C14       1.0000    0.12950   0.23960   0.96240   Biso      1.000     C          -0.156331           
         C15       1.0000    0.40440   0.26130   0.95320   Biso      1.000     C          -0.101762           
         C16       1.0000    0.47860   0.14780   0.80640   Biso      1.000     C          0.599765  
         C17       1.0000    0.25930   0.90210   0.58860   Biso      1.000     C          -0.014208000000000002         
         C18       1.0000    0.20660   0.80700   0.53360   Biso      1.000     C          -0.11299400000000001          
         C19       1.0000    0.13910   0.76750   0.57060   Biso      1.000     C          -0.018378           
         C20       1.0000    0.12120   0.82590   0.66300   Biso      1.000     C          -0.16914300000000002          
         C21       1.0000    0.16910   0.92010   0.71740   Biso      1.000     C          0.18324400000000002           
         C22       1.0000    0.23810   0.96000   0.67960   Biso      1.000     C          -0.157175           
         C23       1.0000    0.08400   0.66260   0.50620   Biso      1.000     C          0.664367  
         C24       1.0000    0.33470   0.94320   0.55020   Biso      1.000     C          0.691242  
         C25       1.0000    0.12430   0.13480   0.93080   Biso      1.000     C          0.177058  
         C26       1.0000    0.09260   0.09510   0.98820   Biso      1.000     C          -0.158308           
         C27       1.0000    0.06180   0.16300   0.07420   Biso      1.000     C          -0.09153  
         C28       1.0000    0.37050   0.27720   0.03760   Biso      1.000     C          -0.155191           
         C29       1.0000    0.75930   0.68650   0.58860   Biso      1.000     C          -0.014369           
         C30       1.0000    0.70660   0.72660   0.53360   Biso      1.000     C          -0.114151           
         C31       1.0000    0.63910   0.80310   0.57060   Biso      1.000     C          -0.01807  
         C32       1.0000    0.97860   0.65860   0.80640   Biso      1.000     C          0.5984729999999999  
         C33       1.0000    0.87050   0.76040   0.03760   Biso      1.000     C          -0.156331           
         C34       1.0000    0.90440   0.69190   0.95320   Biso      1.000     C          -0.10398099999999999          
         C35       1.0000    0.93980   0.73290   0.89820   Biso      1.000     C          -0.003415           
         C36       1.0000    0.93820   0.83700   0.92580   Biso      1.000     C          -0.09152300000000001          
         C37       1.0000    0.90740   0.90490   0.01180   Biso      1.000     C          -0.15830999999999998          
         C38       1.0000    0.87570   0.86520   0.06920   Biso      1.000     C          0.177059  
         C39       1.0000    0.66530   0.05680   0.44980   Biso      1.000     C          0.691242  
         C40       1.0000    0.91600   0.33740   0.49380   Biso      1.000     C          0.664367  
         C41       1.0000    0.76190   0.04000   0.32040   Biso      1.000     C          -0.157176           
         C42       1.0000    0.83090   0.07990   0.28260   Biso      1.000     C          0.183228  
         C43       1.0000    0.87880   0.17410   0.33700   Biso      1.000     C          -0.169126           
         C44       1.0000    0.86090   0.23250   0.42940   Biso      1.000     C          -0.018379           
         C45       1.0000    0.79340   0.19300   0.46640   Biso      1.000     C          -0.11299400000000001          
         C46       1.0000    0.74070   0.09790   0.41140   Biso      1.000     C          -0.014206           
         C47       1.0000    0.52140   0.85220   0.19360   Biso      1.000     C          0.599766  
         C48       1.0000    0.62950   0.72280   0.96240   Biso      1.000     C          -0.1552   
         C49       1.0000    0.59560   0.73870   0.04680   Biso      1.000     C          -0.101762           
         C50       1.0000    0.56020   0.83470   0.10180   Biso      1.000     C          -0.005801           
         C51       1.0000    0.56180   0.91120   0.07420   Biso      1.000     C          -0.091259           
         C52       1.0000    0.59260   0.89310   0.98820   Biso      1.000     C          -0.157095           
         C53       1.0000    0.62430   0.79600   0.93080   Biso      1.000     C          0.176825  
         C54       1.0000    0.83470   0.60700   0.55020   Biso      1.000     C          0.68955   
         C55       1.0000    0.58400   0.84360   0.50620   Biso      1.000     C          0.6627770000000001  
         C56       1.0000    0.73810   0.71960   0.67960   Biso      1.000     C          -0.155388           
         C57       1.0000    0.66910   0.79730   0.71740   Biso      1.000     C          0.178903  
         C58       1.0000    0.62120   0.83710   0.66300   Biso      1.000     C          -0.166848           
         C59       1.0000    0.06020   0.26710   0.10180   Biso      1.000     C          -0.0034100000000000003        
         C60       1.0000    0.09560   0.30810   0.04680   Biso      1.000     C          -0.10398099999999999          
         Dy1       1.0000    0.03673   0.52329   0.63344   Biso      1.000     Dy          2.0685599999999997  
         Dy2       1.0000    0.46327   0.88985   0.36656   Biso      1.000     Dy          2.068901  
         Dy3       1.0000    0.96327   0.47671   0.36656   Biso      1.000     Dy          2.0685599999999997  
         Dy4       1.0000    0.53673   0.11015   0.63344   Biso      1.000     Dy          2.068901  
         H1        1.0000    0.40830   0.05440   0.03060   Biso      1.000     H          0.11848099999999999           
         H2        1.0000    0.84340   0.73330   0.07340   Biso      1.000     H          0.11913199999999999           
         H3        1.0000    0.28340   0.29810   0.52920   Biso      1.000     H          0.129711  
         H4        1.0000    0.42430   0.11200   0.31200   Biso      1.000     H          0.140874  
         H5        1.0000    0.23060   0.30950   0.28360   Biso      1.000     H          0.128501  
         H6        1.0000    0.45790   0.02310   0.88640   Biso      1.000     H          0.11868900000000002           
         H7        1.0000    0.40320   0.31360   0.93420   Biso      1.000     H          0.126174  
         H8        1.0000    0.34340   0.34010   0.07340   Biso      1.000     H          0.118343  
         H9        1.0000    0.21660   0.76890   0.47080   Biso      1.000     H          0.128944  
         H10       1.0000    0.07570   0.80000   0.68800   Biso      1.000     H          0.14181400000000002           
         H11       1.0000    0.26940   0.02590   0.71640   Biso      1.000     H          0.128228  
         H12       1.0000    0.04210   0.13670   0.11360   Biso      1.000     H          0.1182    
         H13       1.0000    0.09170   0.02380   0.96940   Biso      1.000     H          0.119074  
         H14       1.0000    0.15660   0.26670   0.92660   Biso      1.000     H          0.11913299999999999           
         H15       1.0000    0.90320   0.62060   0.93420   Biso      1.000     H          0.127388  
         H16       1.0000    0.95790   0.86330   0.88640   Biso      1.000     H          0.118199  
         H17       1.0000    0.90830   0.97620   0.03060   Biso      1.000     H          0.119074  
         H18       1.0000    0.73060   0.97410   0.28360   Biso      1.000     H          0.128227  
         H19       1.0000    0.92430   0.20000   0.31200   Biso      1.000     H          0.14181300000000002           
         H20       1.0000    0.78340   0.23110   0.52920   Biso      1.000     H          0.128944  
         H21       1.0000    0.09680   0.37940   0.06580   Biso      1.000     H          0.127388  
         H22       1.0000    0.65660   0.65990   0.92660   Biso      1.000     H          0.118346  
         H23       1.0000    0.59680   0.68640   0.06580   Biso      1.000     H          0.126173  
         H24       1.0000    0.54210   0.97690   0.11360   Biso      1.000     H          0.11868800000000002           
         H25       1.0000    0.59170   0.94560   0.96940   Biso      1.000     H          0.11848   
         H26       1.0000    0.76940   0.69050   0.71640   Biso      1.000     H          0.128502  
         H27       1.0000    0.57570   0.88800   0.68800   Biso      1.000     H          0.140871  
         H28       1.0000    0.71660   0.70190   0.47080   Biso      1.000     H          0.129711  
         N1        1.0000    0.65490   0.76610   0.84080   Biso      1.000     N          -0.124768           
         N2        1.0000    0.85850   0.01950   0.19000   Biso      1.000     N          -0.12490799999999999          
         N3        1.0000    0.84510   0.92530   0.15920   Biso      1.000     N          -0.12263399999999999          
         N4        1.0000    0.64150   0.82950   0.81000   Biso      1.000     N          -0.12132799999999999          
         N5        1.0000    0.35850   0.17050   0.19000   Biso      1.000     N          -0.121429           
         N6        1.0000    0.14150   0.98050   0.81000   Biso      1.000     N          -0.12490899999999999          
         N7        1.0000    0.34510   0.23390   0.15920   Biso      1.000     N          -0.12466700000000001          
         N8        1.0000    0.15490   0.07470   0.84080   Biso      1.000     N          -0.12263399999999999          
         O1        1.0000    0.87500   0.56960   0.60120   Biso      1.000     O          -0.627029           
         O2        1.0000    0.94670   0.38988   0.45536   Biso      1.000     O          -0.773926           
         O3        1.0000    0.93360   0.36708   0.57976   Biso      1.000     O          -0.599634           
         O4        1.0000    0.64890   0.11561   0.53302   Biso      1.000     O          -0.721939           
         O5        1.0000    0.62500   0.96840   0.39880   Biso      1.000     O          -0.628726           
         O6        1.0000    0.53200   0.78580   0.22120   Biso      1.000     O          -0.648594           
         O7        1.0000    0.48330   0.93610   0.23780   Biso      1.000     O          -0.661558           
         O8        1.0000    0.55330   0.93452   0.54464   Biso      1.000     O          -0.772515           
         O9        1.0000    0.56640   0.78732   0.42024   Biso      1.000     O          -0.599334           
         O10       1.0000    0.85110   0.58259   0.46698   Biso      1.000     O          -0.7218680000000001           
         O11       1.0000    0.03200   0.43540   0.22120   Biso      1.000     O          -0.648532           
         O12       1.0000    0.01670   0.69830   0.76220   Biso      1.000     O          -0.660525           
         O13       1.0000    0.05330   0.61012   0.54464   Biso      1.000     O          -0.773926           
         O14       1.0000    0.06640   0.63292   0.42024   Biso      1.000     O          -0.599634           
         O15       1.0000    0.35110   0.88439   0.46698   Biso      1.000     O          -0.721939           
         O16       1.0000    0.37500   0.03160   0.60120   Biso      1.000     O          -0.628726           
         O17       1.0000    0.46800   0.21420   0.77880   Biso      1.000     O          -0.648594           
         O18       1.0000    0.51670   0.06390   0.76220   Biso      1.000     O          -0.661558           
         O19       1.0000    0.44670   0.06548   0.45536   Biso      1.000     O          -0.772515           
         O20       1.0000    0.43360   0.21268   0.57976   Biso      1.000     O          -0.599334           
         O21       1.0000    0.14890   0.41741   0.53302   Biso      1.000     O          -0.7218680000000001           
         O22       1.0000    0.12500   0.43040   0.39880   Biso      1.000     O          -0.627029           
         O23       1.0000    0.98330   0.30170   0.23780   Biso      1.000     O          -0.660525           
         O24       1.0000    0.96800   0.56460   0.77880   Biso      1.000     O          -0.648532 