
##########################################################################
#               Crystallographic Information Format file
#               Produced by PyCifRW module
#
#  This is a CIF file.  CIF has been adopted by the International
#  Union of Crystallography as the standard for data archiving and
#  transmission.
#
#  For information on this file format, follow the CIF links at
#  http://www.iucr.org
##########################################################################

data_image0

_cell_length_a                          8.522
_cell_length_b                          10.18
_cell_length_c                          17.534
_cell_angle_alpha                       90
_cell_angle_beta                        100.627
_cell_angle_gamma                       90
_symmetry_space_group_name_H-M          'P 1'
_symmetry_int_tables_number             1
loop_
  _symmetry_equiv_pos_as_xyz
         'x, y, z' 
loop_
  _atom_site_label
  _atom_site_occupancy
  _atom_site_fract_x
  _atom_site_fract_y
  _atom_site_fract_z
  _atom_site_thermal_displace_type
  _atom_site_B_iso_or_equiv
  _atom_site_type_symbol
  _atom_site_charge
         C1        1.0000    0.92830   0.45790   0.48680   Biso      1.000     C          0.105269  
         C2        1.0000    0.79950   0.45760   0.52440   Biso      1.000     C          -0.173567           
         C3        1.0000    0.92120   0.37330   0.42390   Biso      1.000     C          -0.185614           
         C4        1.0000    0.78450   0.29730   0.40250   Biso      1.000     C          0.098798  
         C5        1.0000    0.28120   0.97530   0.31030   Biso      1.000     C          0.088884  
         C6        1.0000    0.13640   0.81660   0.21540   Biso      1.000     C          0.5652550000000001  
         C7        1.0000    0.16700   0.87920   0.29430   Biso      1.000     C          -0.048411           
         C8        1.0000    0.08310   0.84310   0.35230   Biso      1.000     C          -0.037199           
         C9        1.0000    0.11980   0.90840   0.42350   Biso      1.000     C          -0.15077000000000002          
         C10       1.0000    0.66940   0.37890   0.49780   Biso      1.000     C          0.102168  
         C11       1.0000    0.26700   0.50460   0.06640   Biso      1.000     C          0.109642  
         C12       1.0000    0.41690   0.34310   0.14770   Biso      1.000     C          -0.037202           
         C13       1.0000    0.33300   0.37920   0.20570   Biso      1.000     C          -0.048436           
         C14       1.0000    0.36360   0.31660   0.28460   Biso      1.000     C          0.565285  
         C15       1.0000    0.21880   0.47530   0.18970   Biso      1.000     C          0.088885  
         C16       1.0000    0.71550   0.79730   0.09750   Biso      1.000     C          0.098786  
         C17       1.0000    0.57880   0.87330   0.07610   Biso      1.000     C          -0.185625           
         C18       1.0000    0.57170   0.95790   0.01320   Biso      1.000     C          0.10528199999999999           
         C19       1.0000    0.70050   0.95760   0.97560   Biso      1.000     C          -0.17357  
         C20       1.0000    0.38020   0.40840   0.07650   Biso      1.000     C          -0.150756           
         C21       1.0000    0.73300   0.49540   0.93360   Biso      1.000     C          0.10965499999999999           
         C22       1.0000    0.61980   0.59160   0.92350   Biso      1.000     C          -0.150764           
         C23       1.0000    0.58310   0.65690   0.85230   Biso      1.000     C          -0.037218           
         C24       1.0000    0.33060   0.62110   0.50220   Biso      1.000     C          0.102164  
         C25       1.0000    0.20050   0.54240   0.47560   Biso      1.000     C          -0.17356300000000002          
         C26       1.0000    0.07170   0.54210   0.51320   Biso      1.000     C          0.105273  
         C27       1.0000    0.07880   0.62670   0.57610   Biso      1.000     C          -0.185619           
         C28       1.0000    0.21550   0.70270   0.59750   Biso      1.000     C          0.098797  
         C29       1.0000    0.71880   0.02470   0.68970   Biso      1.000     C          0.088889  
         C30       1.0000    0.86360   0.18340   0.78460   Biso      1.000     C          0.56526   
         C31       1.0000    0.83300   0.12080   0.70570   Biso      1.000     C          -0.048398000000000004         
         C32       1.0000    0.91690   0.15690   0.64770   Biso      1.000     C          -0.037198           
         C33       1.0000    0.88020   0.09160   0.57650   Biso      1.000     C          -0.150764           
         C34       1.0000    0.76700   0.99540   0.56640   Biso      1.000     C          0.109627  
         C35       1.0000    0.16940   0.12110   0.99780   Biso      1.000     C          0.10216499999999999           
         C36       1.0000    0.29950   0.04240   0.02440   Biso      1.000     C          -0.17356300000000002          
         C37       1.0000    0.42830   0.04210   0.98680   Biso      1.000     C          0.105268  
         C38       1.0000    0.42120   0.12670   0.92390   Biso      1.000     C          -0.185619           
         C39       1.0000    0.28450   0.20270   0.90250   Biso      1.000     C          0.098776  
         C40       1.0000    0.78120   0.52470   0.81030   Biso      1.000     C          0.088876  
         C41       1.0000    0.63640   0.68340   0.71540   Biso      1.000     C          0.565275  
         C42       1.0000    0.66700   0.62080   0.79430   Biso      1.000     C          -0.048448000000000005         
         C43       1.0000    0.83060   0.87890   0.00220   Biso      1.000     C          0.102162  
         C44       1.0000    0.23300   0.00460   0.43360   Biso      1.000     C          0.10963099999999999           
         Cu1       1.0000    0.01522   0.67292   0.09536   Biso      1.000     Cu          0.788658  
         Cu2       1.0000    0.98478   0.32708   0.90464   Biso      1.000     Cu          0.7887    
         Cu3       1.0000    0.48478   0.17292   0.40464   Biso      1.000     Cu          0.7886810000000001  
         Cu4       1.0000    0.51522   0.82708   0.59536   Biso      1.000     Cu          0.788696  
         H1        1.0000    0.41770   0.61700   0.47720   Biso      1.000     H          0.101137  
         H2        1.0000    0.43270   0.38640   0.03630   Biso      1.000     H          0.113641  
         H3        1.0000    0.49450   0.27780   0.15620   Biso      1.000     H          0.128335  
         H4        1.0000    0.16030   0.49700   0.22780   Biso      1.000     H          0.108556  
         H5        1.0000    0.72090   0.74240   0.14030   Biso      1.000     H          0.106299  
         H6        1.0000    0.49470   0.86780   0.10300   Biso      1.000     H          0.143773  
         H7        1.0000    0.69950   0.01050   0.93230   Biso      1.000     H          0.13964400000000002           
         H8        1.0000    0.91770   0.88300   0.97720   Biso      1.000     H          0.101156  
         H9        1.0000    0.06730   0.88640   0.46370   Biso      1.000     H          0.113647  
         H10       1.0000    0.00550   0.77780   0.34380   Biso      1.000     H          0.128328  
         H11       1.0000    0.33970   0.99700   0.27220   Biso      1.000     H          0.108548  
         H12       1.0000    0.77910   0.24240   0.35970   Biso      1.000     H          0.10630099999999999           
         H13       1.0000    0.00530   0.36780   0.39700   Biso      1.000     H          0.143772  
         H14       1.0000    0.19950   0.48950   0.43230   Biso      1.000     H          0.13963399999999998           
         H15       1.0000    0.58230   0.38300   0.52280   Biso      1.000     H          0.101154  
         H16       1.0000    0.99470   0.63220   0.60300   Biso      1.000     H          0.143764  
         H17       1.0000    0.22090   0.75760   0.64030   Biso      1.000     H          0.106279  
         H18       1.0000    0.66030   0.00300   0.72780   Biso      1.000     H          0.108547  
         H19       1.0000    0.99450   0.22220   0.65620   Biso      1.000     H          0.128339  
         H20       1.0000    0.08230   0.11700   0.02280   Biso      1.000     H          0.101158  
         H21       1.0000    0.93270   0.11360   0.53630   Biso      1.000     H          0.11364500000000001           
         H22       1.0000    0.50530   0.13220   0.89700   Biso      1.000     H          0.143782  
         H23       1.0000    0.27910   0.25760   0.85970   Biso      1.000     H          0.106326  
         H24       1.0000    0.83970   0.50300   0.77220   Biso      1.000     H          0.10855899999999999           
         H25       1.0000    0.50550   0.72220   0.84380   Biso      1.000     H          0.12833599999999998           
         H26       1.0000    0.56730   0.61360   0.96370   Biso      1.000     H          0.113641  
         H27       1.0000    0.30050   0.98950   0.06770   Biso      1.000     H          0.13965   
         H28       1.0000    0.80050   0.51050   0.56770   Biso      1.000     H          0.139645  
         N1        1.0000    0.68770   0.96050   0.62190   Biso      1.000     N          -0.22439499999999998          
         N2        1.0000    0.31230   0.03950   0.37810   Biso      1.000     N          -0.22439299999999998          
         N3        1.0000    0.33720   0.70190   0.56150   Biso      1.000     N          -0.195802           
         N4        1.0000    0.81230   0.46050   0.87810   Biso      1.000     N          -0.22440700000000002          
         N5        1.0000    0.16280   0.20190   0.93850   Biso      1.000     N          -0.195804           
         N6        1.0000    0.66280   0.29810   0.43850   Biso      1.000     N          -0.195797           
         N7        1.0000    0.83720   0.79810   0.06150   Biso      1.000     N          -0.195785           
         N8        1.0000    0.18770   0.53950   0.12190   Biso      1.000     N          -0.22438200000000003          
         O1        1.0000    0.79080   0.14650   0.83450   Biso      1.000     O          -0.573846           
         O2        1.0000    0.96970   0.27520   0.79530   Biso      1.000     O          -0.548032           
         O3        1.0000    0.93340   0.33450   0.00980   Biso      1.000     O          -0.578852           
         O4        1.0000    0.82260   0.50810   0.08320   Biso      1.000     O          -0.579914           
         O5        1.0000    0.70920   0.64650   0.66550   Biso      1.000     O          -0.5738449999999999           
         O6        1.0000    0.53030   0.77520   0.70470   Biso      1.000     O          -0.548033           
         O7        1.0000    0.43340   0.16550   0.50980   Biso      1.000     O          -0.578842           
         O8        1.0000    0.32260   0.99190   0.58320   Biso      1.000     O          -0.579915           
         O9        1.0000    0.20920   0.85350   0.16550   Biso      1.000     O          -0.573846           
         O10       1.0000    0.03030   0.72480   0.20470   Biso      1.000     O          -0.548029           
         O11       1.0000    0.17740   0.49190   0.91680   Biso      1.000     O          -0.579915           
         O12       1.0000    0.29080   0.35350   0.33450   Biso      1.000     O          -0.5738340000000001           
         O13       1.0000    0.46970   0.22480   0.29530   Biso      1.000     O          -0.54802  
         O14       1.0000    0.67740   0.00810   0.41680   Biso      1.000     O          -0.579904           
         O15       1.0000    0.06660   0.66550   0.99020   Biso      1.000     O          -0.578829           
         O16       1.0000    0.56660   0.83450   0.49020   Biso      1.000     O          -0.578816           
         S1        1.0000    0.21640   0.59668   0.97645   Biso      1.000     S          0.596306  
         S2        1.0000    0.28360   0.09668   0.52355   Biso      1.000     S          0.596292  
         S3        1.0000    0.78360   0.40332   0.02355   Biso      1.000     S          0.5962569999999999  
         S4        1.0000    0.71640   0.90332   0.47645   Biso      1.000     S          0.596278 