
##########################################################################
#               Crystallographic Information Format file
#               Produced by PyCifRW module
#
#  This is a CIF file.  CIF has been adopted by the International
#  Union of Crystallography as the standard for data archiving and
#  transmission.
#
#  For information on this file format, follow the CIF links at
#  http://www.iucr.org
##########################################################################

data_image0

_cell_length_a                          8.3365
_cell_length_b                          10.453
_cell_length_c                          19.03
_cell_angle_alpha                       90
_cell_angle_beta                        90
_cell_angle_gamma                       90
_symmetry_space_group_name_H-M          'P 1'
_symmetry_int_tables_number             1
loop_
  _symmetry_equiv_pos_as_xyz
         'x, y, z' 
loop_
  _atom_site_label
  _atom_site_occupancy
  _atom_site_fract_x
  _atom_site_fract_y
  _atom_site_fract_z
  _atom_site_thermal_displace_type
  _atom_site_B_iso_or_equiv
  _atom_site_type_symbol
  _atom_site_charge
         C1        1.0000    0.75110   0.89620   0.97610   Biso      1.000     C          0.575406  
         C2        1.0000    0.91300   0.12940   0.08600   Biso      1.000     C          0.085111  
         C3        1.0000    0.58700   0.87060   0.58600   Biso      1.000     C          0.085074  
         C4        1.0000    0.54760   0.24350   0.41600   Biso      1.000     C          0.068141  
         C5        1.0000    0.89890   0.86700   0.78880   Biso      1.000     C          -0.044043           
         C6        1.0000    0.74890   0.10380   0.47610   Biso      1.000     C          0.575391  
         C7        1.0000    0.04050   0.20920   0.07470   Biso      1.000     C          -0.278899           
         C8        1.0000    0.19620   0.16570   0.08390   Biso      1.000     C          0.401359  
         C9        1.0000    0.95240   0.75650   0.91600   Biso      1.000     C          0.068099  
         C10       1.0000    0.87500   0.92630   0.71720   Biso      1.000     C          0.574799  
         C11       1.0000    0.41300   0.37060   0.91400   Biso      1.000     C          0.085087  
         C12       1.0000    0.21260   0.03660   0.09990   Biso      1.000     C          -0.275708           
         C13       1.0000    0.54050   0.29080   0.92530   Biso      1.000     C          -0.278947           
         C14       1.0000    0.69620   0.33430   0.91610   Biso      1.000     C          0.401342  
         C15       1.0000    0.25110   0.60380   0.02390   Biso      1.000     C          0.575397  
         C16       1.0000    0.45240   0.74350   0.08400   Biso      1.000     C          0.068123  
         C17       1.0000    0.57960   0.53760   0.89140   Biso      1.000     C          0.077464  
         C18       1.0000    0.31170   0.59140   0.15360   Biso      1.000     C          -0.078399           
         C19       1.0000    0.71260   0.46340   0.90010   Biso      1.000     C          -0.27573  
         C20       1.0000    0.33660   0.64950   0.08890   Biso      1.000     C          -0.053357           
         C21       1.0000    0.51250   0.72790   0.20130   Biso      1.000     C          0.062496  
         C22       1.0000    0.07960   0.96240   0.10860   Biso      1.000     C          0.0775    
         C23       1.0000    0.45950   0.79080   0.57470   Biso      1.000     C          -0.278967           
         C24       1.0000    0.39890   0.63300   0.21120   Biso      1.000     C          -0.044047           
         C25       1.0000    0.30380   0.83430   0.58390   Biso      1.000     C          0.401331  
         C26       1.0000    0.28740   0.96340   0.59990   Biso      1.000     C          -0.275763           
         C27       1.0000    0.81170   0.90860   0.84640   Biso      1.000     C          -0.078396           
         C28       1.0000    0.95950   0.70920   0.42530   Biso      1.000     C          -0.278917           
         C29       1.0000    0.80380   0.66570   0.41610   Biso      1.000     C          0.401349  
         C30       1.0000    0.83660   0.85050   0.91110   Biso      1.000     C          -0.053389           
         C31       1.0000    0.78740   0.53660   0.40010   Biso      1.000     C          -0.275728           
         C32       1.0000    0.01250   0.77210   0.79870   Biso      1.000     C          0.0625    
         C33       1.0000    0.92040   0.46240   0.39140   Biso      1.000     C          0.077486  
         C34       1.0000    0.62500   0.07370   0.21720   Biso      1.000     C          0.574823  
         C35       1.0000    0.60110   0.13300   0.28880   Biso      1.000     C          -0.044083           
         C36       1.0000    0.24890   0.39620   0.52390   Biso      1.000     C          0.575403  
         C37       1.0000    0.04760   0.25650   0.58400   Biso      1.000     C          0.06812   
         C38       1.0000    0.18830   0.40860   0.65360   Biso      1.000     C          -0.078405           
         C39       1.0000    0.48750   0.22790   0.29870   Biso      1.000     C          0.062482  
         C40       1.0000    0.16340   0.35050   0.58890   Biso      1.000     C          -0.053379           
         C41       1.0000    0.98750   0.27210   0.70130   Biso      1.000     C          0.062488  
         C42       1.0000    0.66340   0.14950   0.41110   Biso      1.000     C          -0.053344           
         C43       1.0000    0.10110   0.36700   0.71120   Biso      1.000     C          -0.044078           
         C44       1.0000    0.12500   0.42630   0.78280   Biso      1.000     C          0.574821  
         C45       1.0000    0.42040   0.03760   0.60860   Biso      1.000     C          0.077457  
         C46       1.0000    0.08700   0.62940   0.41400   Biso      1.000     C          0.085105  
         C47       1.0000    0.68830   0.09140   0.34640   Biso      1.000     C          -0.078406           
         C48       1.0000    0.37500   0.57370   0.28280   Biso      1.000     C          0.574804  
         Cu1       1.0000    0.23946   0.60503   0.87662   Biso      1.000     Cu          0.750217  
         Cu2       1.0000    0.76054   0.10503   0.62338   Biso      1.000     Cu          0.750172  
         Cu3       1.0000    0.26054   0.39497   0.37662   Biso      1.000     Cu          0.750254  
         Cu4       1.0000    0.73946   0.89497   0.12338   Biso      1.000     Cu          0.7503    
         H1        1.0000    0.96990   0.71800   0.95940   Biso      1.000     H          0.107091  
         H2        1.0000    0.97750   0.79330   0.43920   Biso      1.000     H          0.147877  
         H3        1.0000    0.73760   0.97450   0.84180   Biso      1.000     H          0.134117  
         H4        1.0000    0.68590   0.50080   0.39550   Biso      1.000     H          0.136685  
         H5        1.0000    0.90550   0.37600   0.38170   Biso      1.000     H          0.084965  
         H6        1.0000    0.07160   0.74500   0.76000   Biso      1.000     H          0.1072    
         H7        1.0000    0.81410   0.49920   0.89550   Biso      1.000     H          0.136681  
         H8        1.0000    0.76240   0.02550   0.34180   Biso      1.000     H          0.134117  
         H9        1.0000    0.53010   0.28200   0.45940   Biso      1.000     H          0.107121  
         H10       1.0000    0.58300   0.71700   0.41780   Biso      1.000     H          0.355705  
         H11       1.0000    0.69500   0.82390   0.43430   Biso      1.000     H          0.342853  
         H12       1.0000    0.31000   0.33790   0.91920   Biso      1.000     H          0.095589  
         H13       1.0000    0.52250   0.20670   0.93920   Biso      1.000     H          0.14786   
         H14       1.0000    0.59450   0.62400   0.88170   Biso      1.000     H          0.084961  
         H15       1.0000    0.42840   0.25500   0.26000   Biso      1.000     H          0.107181  
         H16       1.0000    0.81000   0.16210   0.08080   Biso      1.000     H          0.095607  
         H17       1.0000    0.80500   0.17610   0.93430   Biso      1.000     H          0.342841  
         H18       1.0000    0.19500   0.67610   0.56570   Biso      1.000     H          0.342837  
         H19       1.0000    0.08300   0.78300   0.58220   Biso      1.000     H          0.355697  
         H20       1.0000    0.03010   0.21800   0.54060   Biso      1.000     H          0.107095  
         H21       1.0000    0.26240   0.47450   0.65820   Biso      1.000     H          0.134112  
         H22       1.0000    0.92840   0.24500   0.74000   Biso      1.000     H          0.10718   
         H23       1.0000    0.40550   0.12400   0.61830   Biso      1.000     H          0.084947  
         H24       1.0000    0.18590   0.99920   0.60450   Biso      1.000     H          0.136674  
         H25       1.0000    0.47750   0.70670   0.56080   Biso      1.000     H          0.147852  
         H26       1.0000    0.69000   0.83790   0.58080   Biso      1.000     H          0.095581  
         H27       1.0000    0.91700   0.28300   0.91780   Biso      1.000     H          0.355702  
         H28       1.0000    0.30500   0.32390   0.06570   Biso      1.000     H          0.342858  
         H29       1.0000    0.41700   0.21700   0.08220   Biso      1.000     H          0.355714  
         H30       1.0000    0.19000   0.66210   0.41920   Biso      1.000     H          0.095599  
         H31       1.0000    0.23760   0.52550   0.15820   Biso      1.000     H          0.134121  
         H32       1.0000    0.02250   0.29330   0.06080   Biso      1.000     H          0.147884  
         H33       1.0000    0.46990   0.78200   0.04060   Biso      1.000     H          0.107117  
         H34       1.0000    0.09450   0.87600   0.11830   Biso      1.000     H          0.084978  
         H35       1.0000    0.31410   0.00080   0.10450   Biso      1.000     H          0.136693  
         H36       1.0000    0.57160   0.75500   0.24000   Biso      1.000     H          0.107201  
         N1        1.0000    0.04130   0.71780   0.86072   Biso      1.000     N          -0.212316           
         N2        1.0000    0.82090   0.25500   0.92360   Biso      1.000     N          -0.672499           
         N3        1.0000    0.54130   0.78220   0.13928   Biso      1.000     N          -0.212317           
         N4        1.0000    0.17910   0.75500   0.57640   Biso      1.000     N          -0.672518           
         N5        1.0000    0.93000   0.00570   0.10430   Biso      1.000     N          -0.250355           
         N6        1.0000    0.45870   0.28220   0.36072   Biso      1.000     N          -0.212319           
         N7        1.0000    0.07000   0.50570   0.39570   Biso      1.000     N          -0.250366           
         N8        1.0000    0.67910   0.74500   0.42360   Biso      1.000     N          -0.672481           
         N9        1.0000    0.43000   0.49430   0.89570   Biso      1.000     N          -0.25036  
         N10       1.0000    0.95870   0.21780   0.63928   Biso      1.000     N          -0.212321           
         N11       1.0000    0.57000   0.99430   0.60430   Biso      1.000     N          -0.250378           
         N12       1.0000    0.32090   0.24500   0.07640   Biso      1.000     N          -0.672472           
         O1        1.0000    0.26580   0.67780   0.97057   Biso      1.000     O          -0.570408           
         O2        1.0000    0.21020   0.52780   0.78331   Biso      1.000     O          -0.554544           
         O3        1.0000    0.06480   0.37660   0.83488   Biso      1.000     O          -0.565926           
         O4        1.0000    0.32280   0.49770   0.52530   Biso      1.000     O          -0.550508           
         O5        1.0000    0.23420   0.32220   0.47057   Biso      1.000     O          -0.570387           
         O6        1.0000    0.78980   0.02780   0.71669   Biso      1.000     O          -0.554607           
         O7        1.0000    0.67720   0.99770   0.97470   Biso      1.000     O          -0.550499           
         O8        1.0000    0.93520   0.87660   0.66512   Biso      1.000     O          -0.565903           
         O9        1.0000    0.43520   0.62340   0.33488   Biso      1.000     O          -0.56587  
         O10       1.0000    0.28980   0.47220   0.28331   Biso      1.000     O          -0.554562           
         O11       1.0000    0.17720   0.50230   0.02530   Biso      1.000     O          -0.550521           
         O12       1.0000    0.82280   0.00230   0.47470   Biso      1.000     O          -0.550537           
         O13       1.0000    0.71020   0.97220   0.21669   Biso      1.000     O          -0.554525           
         O14       1.0000    0.56480   0.12340   0.16512   Biso      1.000     O          -0.565899           
         O15       1.0000    0.76580   0.82220   0.02943   Biso      1.000     O          -0.570373           
         O16       1.0000    0.73420   0.17780   0.52943   Biso      1.000     O          -0.570443 