
##########################################################################
#               Crystallographic Information Format file
#               Produced by PyCifRW module
#
#  This is a CIF file.  CIF has been adopted by the International
#  Union of Crystallography as the standard for data archiving and
#  transmission.
#
#  For information on this file format, follow the CIF links at
#  http://www.iucr.org
##########################################################################

data_image0

_cell_length_a                          25.7599
_cell_length_b                          25.7599
_cell_length_c                          6.8766
_cell_angle_alpha                       90
_cell_angle_beta                        90
_cell_angle_gamma                       120
_symmetry_space_group_name_H-M          'P 1'
_symmetry_int_tables_number             1
loop_
  _symmetry_equiv_pos_as_xyz
         'x, y, z' 
loop_
  _atom_site_label
  _atom_site_occupancy
  _atom_site_fract_x
  _atom_site_fract_y
  _atom_site_fract_z
  _atom_site_thermal_displace_type
  _atom_site_B_iso_or_equiv
  _atom_site_type_symbol
  _atom_site_charge
         C1        1.0000    0.44473   0.45517   0.42067   Biso      1.000     C          0.304349  
         C2        1.0000    0.26173   0.34837   0.09127   Biso      1.000     C          0.64048   
         C3        1.0000    0.45517   0.01043   0.57933   Biso      1.000     C          0.30445900000000004           
         C4        1.0000    0.50177   0.01523   0.69023   Biso      1.000     C          -0.205656           
         C5        1.0000    0.54697   0.00633   0.61993   Biso      1.000     C          -0.13755  
         C6        1.0000    0.59507   0.01503   0.75793   Biso      1.000     C          0.6404989999999999  
         C7        1.0000    0.78850   0.67710   0.24600   Biso      1.000     C          0.304265  
         C8        1.0000    0.83510   0.68190   0.35690   Biso      1.000     C          -0.205104           
         C9        1.0000    0.88030   0.67300   0.28660   Biso      1.000     C          -0.137158           
         C10       1.0000    0.92840   0.68170   0.42460   Biso      1.000     C          0.640461  
         C11       1.0000    0.48653   0.50177   0.30977   Biso      1.000     C          -0.20523899999999998          
         C12       1.0000    0.54063   0.54697   0.38007   Biso      1.000     C          -0.13684200000000002          
         C13       1.0000    0.58003   0.59507   0.24207   Biso      1.000     C          0.6404810000000001  
         C14       1.0000    0.77807   0.12183   0.08733   Biso      1.000     C          0.304365  
         C15       1.0000    0.81987   0.16843   0.97643   Biso      1.000     C          -0.205006           
         C16       1.0000    0.87397   0.21363   0.04673   Biso      1.000     C          -0.13726  
         C17       1.0000    0.91337   0.26173   0.90873   Biso      1.000     C          0.640403  
         C18       1.0000    0.11140   0.78850   0.75400   Biso      1.000     C          0.305669  
         C19       1.0000    0.15320   0.83510   0.64310   Biso      1.000     C          -0.20631599999999997          
         C20       1.0000    0.20730   0.88030   0.71340   Biso      1.000     C          -0.13439700000000002          
         C21       1.0000    0.24670   0.92840   0.57540   Biso      1.000     C          0.635818  
         C22       1.0000    0.01043   0.55527   0.42067   Biso      1.000     C          0.3044    
         C23       1.0000    0.21363   0.33967   0.95327   Biso      1.000     C          -0.136962           
         C24       1.0000    0.16843   0.34857   0.02357   Biso      1.000     C          -0.205416           
         C25       1.0000    0.12183   0.34377   0.91267   Biso      1.000     C          0.30480300000000005           
         C26       1.0000    0.31830   0.24670   0.42460   Biso      1.000     C          0.640478  
         C27       1.0000    0.18013   0.83157   0.02357   Biso      1.000     C          -0.200646           
         C28       1.0000    0.12603   0.78637   0.95327   Biso      1.000     C          -0.137481           
         C29       1.0000    0.08663   0.73827   0.09127   Biso      1.000     C          0.640282  
         C30       1.0000    0.55527   0.54483   0.57933   Biso      1.000     C          0.304706  
         C31       1.0000    0.51347   0.49823   0.69023   Biso      1.000     C          -0.205188           
         C32       1.0000    0.45937   0.45303   0.61993   Biso      1.000     C          -0.13736900000000002          
         C33       1.0000    0.41997   0.40493   0.75793   Biso      1.000     C          0.640583  
         C34       1.0000    0.88860   0.21150   0.24600   Biso      1.000     C          0.30413   
         C35       1.0000    0.84680   0.16490   0.35690   Biso      1.000     C          -0.205292           
         C36       1.0000    0.79270   0.11970   0.28660   Biso      1.000     C          -0.136848           
         C37       1.0000    0.01523   0.51347   0.30977   Biso      1.000     C          -0.205269           
         C38       1.0000    0.75330   0.07160   0.42460   Biso      1.000     C          0.640437  
         C39       1.0000    0.65143   0.81987   0.02357   Biso      1.000     C          -0.205064           
         C40       1.0000    0.66033   0.87397   0.95327   Biso      1.000     C          -0.136725           
         C41       1.0000    0.65163   0.91337   0.09127   Biso      1.000     C          0.640361  
         C42       1.0000    0.98957   0.44473   0.57933   Biso      1.000     C          0.304404  
         C43       1.0000    0.98477   0.48653   0.69023   Biso      1.000     C          -0.20525  
         C44       1.0000    0.99367   0.54063   0.61993   Biso      1.000     C          -0.136917           
         C45       1.0000    0.98497   0.58003   0.75793   Biso      1.000     C          0.640443  
         C46       1.0000    0.32290   0.11140   0.24600   Biso      1.000     C          0.300696  
         C47       1.0000    0.31810   0.15320   0.35690   Biso      1.000     C          -0.203057           
         C48       1.0000    0.32700   0.20730   0.28660   Biso      1.000     C          -0.136541           
         C49       1.0000    0.65623   0.77807   0.91267   Biso      1.000     C          0.30390100000000003           
         C50       1.0000    0.00633   0.45937   0.38007   Biso      1.000     C          -0.136897           
         C51       1.0000    0.22193   0.87817   0.91267   Biso      1.000     C          0.304789  
         C52       1.0000    0.83157   0.65143   0.97643   Biso      1.000     C          -0.205565           
         C53       1.0000    0.78637   0.66033   0.04673   Biso      1.000     C          -0.136744           
         C54       1.0000    0.73827   0.65163   0.90873   Biso      1.000     C          0.640401  
         C55       1.0000    0.40493   0.98497   0.24207   Biso      1.000     C          0.635027  
         C56       1.0000    0.34837   0.08663   0.90873   Biso      1.000     C          0.636234  
         C57       1.0000    0.33967   0.12603   0.04673   Biso      1.000     C          -0.13635899999999998          
         C58       1.0000    0.34857   0.18013   0.97643   Biso      1.000     C          -0.204022           
         C59       1.0000    0.67710   0.88860   0.75400   Biso      1.000     C          0.304446  
         C60       1.0000    0.45303   0.99367   0.38007   Biso      1.000     C          -0.137451           
         C61       1.0000    0.87817   0.65623   0.08733   Biso      1.000     C          0.304584  
         C62       1.0000    0.21150   0.32290   0.75400   Biso      1.000     C          0.304137  
         C63       1.0000    0.68190   0.84680   0.64310   Biso      1.000     C          -0.20514699999999997          
         C64       1.0000    0.34377   0.22193   0.08733   Biso      1.000     C          0.305029  
         C65       1.0000    0.49823   0.98477   0.30977   Biso      1.000     C          -0.205884           
         C66       1.0000    0.16490   0.31810   0.64310   Biso      1.000     C          -0.20514899999999997          
         C67       1.0000    0.11970   0.32700   0.71340   Biso      1.000     C          -0.136855           
         C68       1.0000    0.01503   0.41997   0.24207   Biso      1.000     C          0.640521  
         C69       1.0000    0.68170   0.75330   0.57540   Biso      1.000     C          0.6406    
         C70       1.0000    0.07160   0.31830   0.57540   Biso      1.000     C          0.640524  
         C71       1.0000    0.54483   0.98957   0.42067   Biso      1.000     C          0.30345900000000003           
         C72       1.0000    0.67300   0.79270   0.71340   Biso      1.000     C          -0.137329           
         Co1       1.0000    0.36412   0.04984   0.52257   Biso      1.000     Co          0.953094  
         Co2       1.0000    0.35239   0.96921   0.85590   Biso      1.000     Co          0.961477  
         Co3       1.0000    0.03079   0.38317   0.85590   Biso      1.000     Co          0.964533  
         Co4       1.0000    0.68572   0.63588   0.52257   Biso      1.000     Co          0.9642540000000001  
         Co5       1.0000    0.64761   0.03079   0.14410   Biso      1.000     Co          0.963756  
         Co6       1.0000    0.30255   0.28349   0.81076   Biso      1.000     Co          0.9639840000000001  
         Co7       1.0000    0.31428   0.36412   0.47743   Biso      1.000     Co          0.964888  
         Co8       1.0000    0.71651   0.01905   0.81076   Biso      1.000     Co          0.9640110000000001  
         Co9       1.0000    0.28349   0.98095   0.18924   Biso      1.000     Co          0.8260059999999999  
         Co10      1.0000    0.04984   0.68572   0.47743   Biso      1.000     Co          0.962419  
         Co11      1.0000    0.96921   0.61683   0.14410   Biso      1.000     Co          0.964334  
         Co12      1.0000    0.61683   0.64761   0.85590   Biso      1.000     Co          0.964828  
         Co13      1.0000    0.98095   0.69745   0.81076   Biso      1.000     Co          0.963791  
         Co14      1.0000    0.01905   0.30255   0.18924   Biso      1.000     Co          0.964867  
         Co15      1.0000    0.38317   0.35239   0.14410   Biso      1.000     Co          0.963722  
         Co16      1.0000    0.63588   0.95016   0.47743   Biso      1.000     Co          0.964742  
         Co17      1.0000    0.69745   0.71651   0.18924   Biso      1.000     Co          0.9646819999999999  
         Co18      1.0000    0.95016   0.31428   0.52257   Biso      1.000     Co          0.964723  
         H1        1.0000    0.64123   0.81097   0.15697   Biso      1.000     H          0.143898  
         H2        1.0000    0.85570   0.16360   0.49030   Biso      1.000     H          0.143923  
         H3        1.0000    0.97457   0.47763   0.82363   Biso      1.000     H          0.143952  
         H4        1.0000    0.30790   0.14430   0.49030   Biso      1.000     H          0.14396   
         H5        1.0000    0.16360   0.30790   0.50970   Biso      1.000     H          0.14393399999999998           
         H6        1.0000    0.52237   0.49693   0.82363   Biso      1.000     H          0.143993  
         H7        1.0000    0.49693   0.97457   0.17637   Biso      1.000     H          0.143792  
         H8        1.0000    0.83027   0.64123   0.84303   Biso      1.000     H          0.144025  
         H9        1.0000    0.16973   0.35877   0.15697   Biso      1.000     H          0.144066  
         H10       1.0000    0.50307   0.02543   0.82363   Biso      1.000     H          0.14366600000000002           
         H11       1.0000    0.35877   0.18903   0.84303   Biso      1.000     H          0.144128  
         H12       1.0000    0.69210   0.85570   0.50970   Biso      1.000     H          0.14394400000000002           
         H13       1.0000    0.18903   0.83027   0.15697   Biso      1.000     H          0.144992  
         H14       1.0000    0.83640   0.69210   0.49030   Biso      1.000     H          0.143969  
         H15       1.0000    0.81097   0.16973   0.84303   Biso      1.000     H          0.143894  
         H16       1.0000    0.02543   0.52237   0.17637   Biso      1.000     H          0.14393499999999998           
         H17       1.0000    0.47763   0.50307   0.17637   Biso      1.000     H          0.143988  
         H18       1.0000    0.14430   0.83640   0.50970   Biso      1.000     H          0.144488  
         O1        1.0000    0.77018   0.07257   0.59530   Biso      1.000     O          -0.52667  
         O2        1.0000    0.94123   0.25231   0.32950   Biso      1.000     O          -0.5878   
         O3        1.0000    0.70390   0.02929   0.35850   Biso      1.000     O          -0.596863           
         O4        1.0000    0.69596   0.65872   0.97483   Biso      1.000     O          -0.597011           
         O5        1.0000    0.72544   0.08102   0.00383   Biso      1.000     O          -0.587663           
         O6        1.0000    0.89649   0.26076   0.73803   Biso      1.000     O          -0.526288           
         O7        1.0000    0.96277   0.30404   0.97483   Biso      1.000     O          -0.597018           
         O8        1.0000    0.73924   0.63572   0.73803   Biso      1.000     O          -0.5264479999999999           
         O9        1.0000    0.91898   0.64441   0.00383   Biso      1.000     O          -0.587743           
         O10       1.0000    0.60790   0.58564   0.66283   Biso      1.000     O          -0.587904           
         O11       1.0000    0.43685   0.40590   0.92863   Biso      1.000     O          -0.526225           
         O12       1.0000    0.00794   0.37057   0.30817   Biso      1.000     O          -0.59707  
         O13       1.0000    0.22982   0.92743   0.40470   Biso      1.000     O          -0.49241899999999994          
         O14       1.0000    0.05877   0.74769   0.67050   Biso      1.000     O          -0.586368           
         O15       1.0000    0.29610   0.97071   0.64150   Biso      1.000     O          -0.594885           
         O16       1.0000    0.02225   0.60790   0.33717   Biso      1.000     O          -0.587599           
         O17       1.0000    0.03723   0.69596   0.02517   Biso      1.000     O          -0.596604           
         O18       1.0000    0.27456   0.91898   0.99617   Biso      1.000     O          -0.560949           
         O19       1.0000    0.10351   0.73924   0.26197   Biso      1.000     O          -0.5265850000000001           
         O20       1.0000    0.07257   0.30239   0.40470   Biso      1.000     O          -0.526584           
         O21       1.0000    0.25231   0.31108   0.67050   Biso      1.000     O          -0.587621           
         O22       1.0000    0.02929   0.32539   0.64150   Biso      1.000     O          -0.596885           
         O23       1.0000    0.37057   0.36262   0.69183   Biso      1.000     O          -0.597224           
         O24       1.0000    0.36428   0.10351   0.73803   Biso      1.000     O          -0.5198510000000001           
         O25       1.0000    0.39210   0.41436   0.33717   Biso      1.000     O          -0.587484           
         O26       1.0000    0.67461   0.70390   0.64150   Biso      1.000     O          -0.597076           
         O27       1.0000    0.30404   0.34128   0.02517   Biso      1.000     O          -0.596897           
         O28       1.0000    0.08102   0.35559   0.99617   Biso      1.000     O          -0.588019           
         O29       1.0000    0.26076   0.36428   0.26197   Biso      1.000     O          -0.526247           
         O30       1.0000    0.68892   0.94123   0.67050   Biso      1.000     O          -0.587963           
         O31       1.0000    0.69761   0.77018   0.40470   Biso      1.000     O          -0.5263439999999999           
         O32       1.0000    0.59410   0.03094   0.92863   Biso      1.000     O          -0.526572           
         O33       1.0000    0.41436   0.02225   0.66283   Biso      1.000     O          -0.590344           
         O34       1.0000    0.63738   0.00794   0.69183   Biso      1.000     O          -0.59709  
         O35       1.0000    0.32539   0.29610   0.35850   Biso      1.000     O          -0.596405           
         O36       1.0000    0.31108   0.05877   0.32950   Biso      1.000     O          -0.548673           
         O37       1.0000    0.30239   0.22982   0.59530   Biso      1.000     O          -0.526779           
         O38       1.0000    0.92743   0.69761   0.59530   Biso      1.000     O          -0.526403           
         O39       1.0000    0.62943   0.63738   0.30817   Biso      1.000     O          -0.596856           
         O40       1.0000    0.40590   0.96906   0.07137   Biso      1.000     O          -0.526242           
         O41       1.0000    0.58564   0.97775   0.33717   Biso      1.000     O          -0.58768  
         O42       1.0000    0.97071   0.67461   0.35850   Biso      1.000     O          -0.596885           
         O43       1.0000    0.99206   0.62943   0.69183   Biso      1.000     O          -0.5967560000000001           
         O44       1.0000    0.97775   0.39210   0.66283   Biso      1.000     O          -0.587793           
         O45       1.0000    0.96906   0.56315   0.92863   Biso      1.000     O          -0.526521           
         O46       1.0000    0.36262   0.99206   0.30817   Biso      1.000     O          -0.57955  
         O47       1.0000    0.34128   0.03723   0.97483   Biso      1.000     O          -0.557573           
         O48       1.0000    0.35559   0.27456   0.00383   Biso      1.000     O          -0.587198           
         O49       1.0000    0.56315   0.59410   0.07137   Biso      1.000     O          -0.526524           
         O50       1.0000    0.65872   0.96277   0.02517   Biso      1.000     O          -0.596668           
         O51       1.0000    0.64441   0.72544   0.99617   Biso      1.000     O          -0.5877439999999999           
         O52       1.0000    0.63572   0.89649   0.26197   Biso      1.000     O          -0.526597           
         O53       1.0000    0.74769   0.68892   0.32950   Biso      1.000     O          -0.587609           
         O54       1.0000    0.03094   0.43685   0.07137   Biso      1.000     O          -0.526555 