
##########################################################################
#               Crystallographic Information Format file
#               Produced by PyCifRW module
#
#  This is a CIF file.  CIF has been adopted by the International
#  Union of Crystallography as the standard for data archiving and
#  transmission.
#
#  For information on this file format, follow the CIF links at
#  http://www.iucr.org
##########################################################################

data_image0

_cell_length_a                          25.866
_cell_length_b                          25.866
_cell_length_c                          6.8457
_cell_angle_alpha                       90
_cell_angle_beta                        90
_cell_angle_gamma                       120
_symmetry_space_group_name_H-M          'P 1'
_symmetry_int_tables_number             1
loop_
  _symmetry_equiv_pos_as_xyz
         'x, y, z' 
loop_
  _atom_site_label
  _atom_site_occupancy
  _atom_site_fract_x
  _atom_site_fract_y
  _atom_site_fract_z
  _atom_site_thermal_displace_type
  _atom_site_B_iso_or_equiv
  _atom_site_type_symbol
  _atom_site_charge
         C1        1.0000    0.92780   0.68173   0.42697   Biso      1.000     C          0.640696  
         C2        1.0000    0.32300   0.11106   0.24387   Biso      1.000     C          0.308098  
         C3        1.0000    0.68173   0.75392   0.57303   Biso      1.000     C          0.635012  
         C4        1.0000    0.68262   0.84786   0.64063   Biso      1.000     C          -0.203459           
         C5        1.0000    0.67252   0.79263   0.71183   Biso      1.000     C          -0.140351           
         C6        1.0000    0.65634   0.77772   0.91053   Biso      1.000     C          0.308211  
         C7        1.0000    0.01506   0.42059   0.23970   Biso      1.000     C          0.640453  
         C8        1.0000    0.01595   0.51453   0.30730   Biso      1.000     C          -0.202634           
         C9        1.0000    0.00585   0.45930   0.37850   Biso      1.000     C          -0.14036  
         C10       1.0000    0.98967   0.44439   0.57720   Biso      1.000     C          0.30811   
         C11       1.0000    0.83475   0.68262   0.35937   Biso      1.000     C          -0.197734           
         C12       1.0000    0.87988   0.67252   0.28817   Biso      1.000     C          -0.141686           
         C13       1.0000    0.87861   0.65634   0.08947   Biso      1.000     C          0.310077  
         C14       1.0000    0.26114   0.34839   0.09363   Biso      1.000     C          0.640577  
         C15       1.0000    0.16809   0.34928   0.02603   Biso      1.000     C          -0.202545           
         C16       1.0000    0.21322   0.33918   0.95483   Biso      1.000     C          -0.140509           
         C17       1.0000    0.21195   0.32300   0.75613   Biso      1.000     C          0.307893  
         C18       1.0000    0.59447   0.01506   0.76030   Biso      1.000     C          0.640382  
         C19       1.0000    0.50142   0.01595   0.69270   Biso      1.000     C          -0.202722           
         C20       1.0000    0.54655   0.00585   0.62150   Biso      1.000     C          -0.140296           
         C21       1.0000    0.54528   0.98967   0.42280   Biso      1.000     C          0.30813   
         C22       1.0000    0.75392   0.07220   0.42697   Biso      1.000     C          0.640095  
         C23       1.0000    0.33918   0.12597   0.04517   Biso      1.000     C          -0.140312           
         C24       1.0000    0.34928   0.18120   0.97397   Biso      1.000     C          -0.202542           
         C25       1.0000    0.34839   0.08726   0.90637   Biso      1.000     C          0.640457  
         C26       1.0000    0.55561   0.54528   0.57720   Biso      1.000     C          0.306626  
         C27       1.0000    0.83191   0.65072   0.97397   Biso      1.000     C          -0.204144           
         C28       1.0000    0.78678   0.66082   0.04517   Biso      1.000     C          -0.136757           
         C29       1.0000    0.78805   0.67700   0.24387   Biso      1.000     C          0.307713  
         C30       1.0000    0.07220   0.31827   0.57303   Biso      1.000     C          0.640621  
         C31       1.0000    0.16525   0.31738   0.64063   Biso      1.000     C          -0.202471           
         C32       1.0000    0.12012   0.32748   0.71183   Biso      1.000     C          -0.140413           
         C33       1.0000    0.12139   0.34366   0.91053   Biso      1.000     C          0.308085  
         C34       1.0000    0.40553   0.98494   0.23970   Biso      1.000     C          0.640507  
         C35       1.0000    0.49858   0.98405   0.30730   Biso      1.000     C          -0.202623           
         C36       1.0000    0.45345   0.99415   0.37850   Biso      1.000     C          -0.140647           
         C37       1.0000    0.84786   0.16525   0.35937   Biso      1.000     C          -0.202647           
         C38       1.0000    0.45472   0.01033   0.57720   Biso      1.000     C          0.307931  
         C39       1.0000    0.81880   0.16809   0.97397   Biso      1.000     C          -0.202687           
         C40       1.0000    0.87403   0.21322   0.04517   Biso      1.000     C          -0.140595           
         C41       1.0000    0.88894   0.21195   0.24387   Biso      1.000     C          0.30767   
         C42       1.0000    0.24608   0.92780   0.57303   Biso      1.000     C          0.640178  
         C43       1.0000    0.15214   0.83475   0.64063   Biso      1.000     C          -0.202597           
         C44       1.0000    0.20737   0.87988   0.71183   Biso      1.000     C          -0.140168           
         C45       1.0000    0.22228   0.87861   0.91053   Biso      1.000     C          0.308163  
         C46       1.0000    0.57941   0.59447   0.23970   Biso      1.000     C          0.635845  
         C47       1.0000    0.48547   0.50142   0.30730   Biso      1.000     C          -0.20266  
         C48       1.0000    0.54070   0.54655   0.37850   Biso      1.000     C          -0.140551           
         C49       1.0000    0.91274   0.26114   0.90637   Biso      1.000     C          0.640599  
         C50       1.0000    0.79263   0.12012   0.28817   Biso      1.000     C          -0.140121           
         C51       1.0000    0.73886   0.65161   0.90637   Biso      1.000     C          0.63587   
         C52       1.0000    0.65072   0.81880   0.02603   Biso      1.000     C          -0.203112           
         C53       1.0000    0.66082   0.87403   0.95483   Biso      1.000     C          -0.140842           
         C54       1.0000    0.67700   0.88894   0.75613   Biso      1.000     C          0.307766  
         C55       1.0000    0.34366   0.22228   0.08947   Biso      1.000     C          0.307956  
         C56       1.0000    0.11106   0.78805   0.75613   Biso      1.000     C          0.307751  
         C57       1.0000    0.12597   0.78678   0.95483   Biso      1.000     C          -0.140499           
         C58       1.0000    0.18120   0.83191   0.02603   Biso      1.000     C          -0.202648           
         C59       1.0000    0.42059   0.40553   0.76030   Biso      1.000     C          0.640483  
         C60       1.0000    0.32748   0.20737   0.28817   Biso      1.000     C          -0.140447           
         C61       1.0000    0.65161   0.91274   0.09363   Biso      1.000     C          0.640423  
         C62       1.0000    0.98494   0.57941   0.76030   Biso      1.000     C          0.640489  
         C63       1.0000    0.51453   0.49858   0.69270   Biso      1.000     C          -0.201906           
         C64       1.0000    0.08726   0.73886   0.09363   Biso      1.000     C          0.640602  
         C65       1.0000    0.31738   0.15214   0.35937   Biso      1.000     C          -0.202517           
         C66       1.0000    0.98405   0.48547   0.69270   Biso      1.000     C          -0.202559           
         C67       1.0000    0.99415   0.54070   0.62150   Biso      1.000     C          -0.140516           
         C68       1.0000    0.77772   0.12139   0.08947   Biso      1.000     C          0.308201  
         C69       1.0000    0.44439   0.45472   0.42280   Biso      1.000     C          0.308024  
         C70       1.0000    0.01033   0.55561   0.42280   Biso      1.000     C          0.307986  
         C71       1.0000    0.31827   0.24608   0.42697   Biso      1.000     C          0.64059   
         C72       1.0000    0.45930   0.45345   0.62150   Biso      1.000     C          -0.139821           
         Co1       1.0000    0.61787   0.64746   0.85699   Biso      1.000     Co          0.959966  
         Co2       1.0000    0.69626   0.71546   0.19032   Biso      1.000     Co          0.969815  
         Co3       1.0000    0.28454   0.98079   0.19032   Biso      1.000     Co          0.96256   
         Co4       1.0000    0.02959   0.38213   0.85699   Biso      1.000     Co          0.962614  
         Co5       1.0000    0.30374   0.28454   0.80968   Biso      1.000     Co          0.962975  
         Co6       1.0000    0.04880   0.68587   0.47634   Biso      1.000     Co          0.962912  
         Co7       1.0000    0.97041   0.61787   0.14301   Biso      1.000     Co          0.962383  
         Co8       1.0000    0.31413   0.36292   0.47634   Biso      1.000     Co          0.962419  
         Co9       1.0000    0.68587   0.63708   0.52366   Biso      1.000     Co          0.823354  
         Co10      1.0000    0.64746   0.02959   0.14301   Biso      1.000     Co          0.962348  
         Co11      1.0000    0.71546   0.01921   0.80968   Biso      1.000     Co          0.962588  
         Co12      1.0000    0.01921   0.30374   0.19032   Biso      1.000     Co          0.962988  
         Co13      1.0000    0.63708   0.95120   0.47634   Biso      1.000     Co          0.962089  
         Co14      1.0000    0.36292   0.04880   0.52366   Biso      1.000     Co          0.962958  
         Co15      1.0000    0.98079   0.69626   0.80968   Biso      1.000     Co          0.962443  
         Co16      1.0000    0.38213   0.35254   0.14301   Biso      1.000     Co          0.962846  
         Co17      1.0000    0.95120   0.31413   0.52366   Biso      1.000     Co          0.962791  
         Co18      1.0000    0.35254   0.97041   0.85699   Biso      1.000     Co          0.962743  
         H1        1.0000    0.80913   0.16957   0.84107   Biso      1.000     H          0.145666  
         H2        1.0000    0.49710   0.97290   0.17440   Biso      1.000     H          0.145685  
         H3        1.0000    0.14247   0.83623   0.50773   Biso      1.000     H          0.145668  
         H4        1.0000    0.47580   0.50290   0.17440   Biso      1.000     H          0.145669  
         H5        1.0000    0.97290   0.47580   0.82560   Biso      1.000     H          0.145701  
         H6        1.0000    0.16377   0.30623   0.50773   Biso      1.000     H          0.145599  
         H7        1.0000    0.30623   0.14247   0.49227   Biso      1.000     H          0.145609  
         H8        1.0000    0.63957   0.80913   0.15893   Biso      1.000     H          0.145436  
         H9        1.0000    0.36043   0.19087   0.84107   Biso      1.000     H          0.145652  
         H10       1.0000    0.69377   0.85753   0.50773   Biso      1.000     H          0.14553   
         H11       1.0000    0.19087   0.83043   0.15893   Biso      1.000     H          0.145675  
         H12       1.0000    0.52420   0.49710   0.82560   Biso      1.000     H          0.145589  
         H13       1.0000    0.83043   0.63957   0.84107   Biso      1.000     H          0.146056  
         H14       1.0000    0.02710   0.52420   0.17440   Biso      1.000     H          0.145675  
         H15       1.0000    0.16957   0.36043   0.15893   Biso      1.000     H          0.145632  
         H16       1.0000    0.85753   0.16377   0.49227   Biso      1.000     H          0.145664  
         H17       1.0000    0.83623   0.69377   0.49227   Biso      1.000     H          0.146448  
         H18       1.0000    0.50290   0.02710   0.82560   Biso      1.000     H          0.145665  
         O1        1.0000    0.40578   0.96838   0.06780   Biso      1.000     O          -0.52858  
         O2        1.0000    0.36436   0.99381   0.30390   Biso      1.000     O          -0.599515           
         O3        1.0000    0.41425   0.02201   0.66160   Biso      1.000     O          -0.585747           
         O4        1.0000    0.68868   0.94109   0.67173   Biso      1.000     O          -0.585533           
         O5        1.0000    0.30231   0.33952   0.02943   Biso      1.000     O          -0.599689           
         O6        1.0000    0.26089   0.36495   0.26553   Biso      1.000     O          -0.528552           
         O7        1.0000    0.25242   0.31132   0.67173   Biso      1.000     O          -0.585678           
         O8        1.0000    0.63505   0.89593   0.26553   Biso      1.000     O          -0.528865           
         O9        1.0000    0.66048   0.96278   0.02943   Biso      1.000     O          -0.599419           
         O10       1.0000    0.03103   0.32714   0.63723   Biso      1.000     O          -0.599387           
         O11       1.0000    0.07245   0.30171   0.40113   Biso      1.000     O          -0.528859           
         O12       1.0000    0.72557   0.08092   0.00507   Biso      1.000     O          -0.585887           
         O13       1.0000    0.59422   0.03162   0.93220   Biso      1.000     O          -0.528758           
         O14       1.0000    0.63564   0.00619   0.69610   Biso      1.000     O          -0.599283           
         O15       1.0000    0.58575   0.97799   0.33840   Biso      1.000     O          -0.585734           
         O16       1.0000    0.70388   0.03103   0.36277   Biso      1.000     O          -0.599119           
         O17       1.0000    0.74758   0.68868   0.32827   Biso      1.000     O          -0.559323           
         O18       1.0000    0.69769   0.66048   0.97057   Biso      1.000     O          -0.599723           
         O19       1.0000    0.73911   0.63505   0.73447   Biso      1.000     O          -0.496145           
         O20       1.0000    0.96838   0.56260   0.93220   Biso      1.000     O          -0.52855  
         O21       1.0000    0.99381   0.62945   0.69610   Biso      1.000     O          -0.599495           
         O22       1.0000    0.02201   0.60776   0.33840   Biso      1.000     O          -0.585633           
         O23       1.0000    0.08092   0.35534   0.99493   Biso      1.000     O          -0.585847           
         O24       1.0000    0.10407   0.73911   0.26553   Biso      1.000     O          -0.528655           
         O25       1.0000    0.96897   0.67286   0.36277   Biso      1.000     O          -0.599314           
         O26       1.0000    0.39224   0.41425   0.33840   Biso      1.000     O          -0.585735           
         O27       1.0000    0.31132   0.05891   0.32827   Biso      1.000     O          -0.585785           
         O28       1.0000    0.33952   0.03722   0.97057   Biso      1.000     O          -0.599323           
         O29       1.0000    0.36495   0.10407   0.73447   Biso      1.000     O          -0.528743           
         O30       1.0000    0.37055   0.36436   0.69610   Biso      1.000     O          -0.599159           
         O31       1.0000    0.43740   0.40578   0.93220   Biso      1.000     O          -0.528796           
         O32       1.0000    0.69829   0.77073   0.40113   Biso      1.000     O          -0.528745           
         O33       1.0000    0.67286   0.70388   0.63723   Biso      1.000     O          -0.581733           
         O34       1.0000    0.64466   0.72557   0.99493   Biso      1.000     O          -0.589573           
         O35       1.0000    0.60776   0.58575   0.66160   Biso      1.000     O          -0.556401           
         O36       1.0000    0.62945   0.63564   0.30390   Biso      1.000     O          -0.563126           
         O37       1.0000    0.56260   0.59422   0.06780   Biso      1.000     O          -0.522967           
         O38       1.0000    0.03162   0.43740   0.06780   Biso      1.000     O          -0.528695           
         O39       1.0000    0.91908   0.64466   0.00507   Biso      1.000     O          -0.585004           
         O40       1.0000    0.30171   0.22927   0.59887   Biso      1.000     O          -0.528611           
         O41       1.0000    0.32714   0.29612   0.36277   Biso      1.000     O          -0.599599           
         O42       1.0000    0.97799   0.39224   0.66160   Biso      1.000     O          -0.585719           
         O43       1.0000    0.27443   0.91908   0.99493   Biso      1.000     O          -0.585773           
         O44       1.0000    0.29612   0.96897   0.63723   Biso      1.000     O          -0.599308           
         O45       1.0000    0.22927   0.92755   0.40113   Biso      1.000     O          -0.528573           
         O46       1.0000    0.35534   0.27443   0.00507   Biso      1.000     O          -0.585762           
         O47       1.0000    0.05891   0.74758   0.67173   Biso      1.000     O          -0.585606           
         O48       1.0000    0.03722   0.69769   0.02943   Biso      1.000     O          -0.599531           
         O49       1.0000    0.92755   0.69829   0.59887   Biso      1.000     O          -0.529118           
         O50       1.0000    0.94109   0.25242   0.32827   Biso      1.000     O          -0.585631           
         O51       1.0000    0.96278   0.30231   0.97057   Biso      1.000     O          -0.599569           
         O52       1.0000    0.89593   0.26089   0.73447   Biso      1.000     O          -0.528638           
         O53       1.0000    0.00619   0.37055   0.30390   Biso      1.000     O          -0.599425           
         O54       1.0000    0.77073   0.07245   0.59887   Biso      1.000     O          -0.528646 