
##########################################################################
#               Crystallographic Information Format file
#               Produced by PyCifRW module
#
#  This is a CIF file.  CIF has been adopted by the International
#  Union of Crystallography as the standard for data archiving and
#  transmission.
#
#  For information on this file format, follow the CIF links at
#  http://www.iucr.org
##########################################################################

data_image0

_cell_length_a                          25.86
_cell_length_b                          25.86
_cell_length_c                          6.8678
_cell_angle_alpha                       90
_cell_angle_beta                        90
_cell_angle_gamma                       120
_symmetry_space_group_name_H-M          'P 1'
_symmetry_int_tables_number             1
loop_
  _symmetry_equiv_pos_as_xyz
         'x, y, z' 
loop_
  _atom_site_label
  _atom_site_occupancy
  _atom_site_fract_x
  _atom_site_fract_y
  _atom_site_fract_z
  _atom_site_thermal_displace_type
  _atom_site_B_iso_or_equiv
  _atom_site_type_symbol
  _atom_site_charge
         C1        1.0000    0.07185   0.31838   0.57377   Biso      1.000     C          0.639991  
         C2        1.0000    0.01059   0.55568   0.42297   Biso      1.000     C          0.30780599999999997           
         C3        1.0000    0.31838   0.24652   0.42623   Biso      1.000     C          0.6402260000000001  
         C4        1.0000    0.31719   0.15218   0.35943   Biso      1.000     C          -0.202291           
         C5        1.0000    0.32740   0.20726   0.28723   Biso      1.000     C          -0.141305           
         C6        1.0000    0.34393   0.22234   0.08963   Biso      1.000     C          0.307251  
         C7        1.0000    0.65171   0.91319   0.09290   Biso      1.000     C          0.640378  
         C8        1.0000    0.65052   0.81885   0.02610   Biso      1.000     C          -0.202226           
         C9        1.0000    0.66073   0.87393   0.95390   Biso      1.000     C          -0.14118699999999998          
         C10       1.0000    0.67726   0.88901   0.75630   Biso      1.000     C          0.307676  
         C11       1.0000    0.16500   0.31719   0.64057   Biso      1.000     C          -0.202231           
         C12       1.0000    0.12013   0.32740   0.71277   Biso      1.000     C          -0.141355           
         C13       1.0000    0.12158   0.34393   0.91037   Biso      1.000     C          0.30747199999999997           
         C14       1.0000    0.40519   0.98504   0.24043   Biso      1.000     C          0.6401600000000001  
         C15       1.0000    0.49834   0.98385   0.30723   Biso      1.000     C          -0.202343           
         C16       1.0000    0.45347   0.99406   0.37943   Biso      1.000     C          -0.14103800000000002          
         C17       1.0000    0.45492   0.01059   0.57703   Biso      1.000     C          0.307717  
         C18       1.0000    0.73852   0.65171   0.90710   Biso      1.000     C          0.640424  
         C19       1.0000    0.83167   0.65052   0.97390   Biso      1.000     C          -0.20009000000000002          
         C20       1.0000    0.78680   0.66073   0.04610   Biso      1.000     C          -0.140871           
         C21       1.0000    0.78825   0.67726   0.24370   Biso      1.000     C          0.30833499999999997           
         C22       1.0000    0.24652   0.92815   0.57377   Biso      1.000     C          0.640446  
         C23       1.0000    0.99406   0.54060   0.62057   Biso      1.000     C          -0.139255           
         C24       1.0000    0.98385   0.48552   0.69277   Biso      1.000     C          -0.203199           
         C25       1.0000    0.98504   0.57986   0.75957   Biso      1.000     C          0.635936  
         C26       1.0000    0.11099   0.78825   0.75630   Biso      1.000     C          0.307893  
         C27       1.0000    0.50166   0.01615   0.69277   Biso      1.000     C          -0.202246           
         C28       1.0000    0.54653   0.00594   0.62057   Biso      1.000     C          -0.141521           
         C29       1.0000    0.54508   0.98941   0.42297   Biso      1.000     C          0.30739099999999997           
         C30       1.0000    0.92815   0.68162   0.42623   Biso      1.000     C          0.635296  
         C31       1.0000    0.83500   0.68281   0.35943   Biso      1.000     C          -0.201222           
         C32       1.0000    0.87987   0.67260   0.28723   Biso      1.000     C          -0.140674           
         C33       1.0000    0.87842   0.65607   0.08963   Biso      1.000     C          0.303552  
         C34       1.0000    0.26148   0.34829   0.09290   Biso      1.000     C          0.640491  
         C35       1.0000    0.16833   0.34948   0.02610   Biso      1.000     C          -0.202164           
         C36       1.0000    0.21320   0.33927   0.95390   Biso      1.000     C          -0.141558           
         C37       1.0000    0.15218   0.83500   0.64057   Biso      1.000     C          -0.202995           
         C38       1.0000    0.21175   0.32274   0.75630   Biso      1.000     C          0.307431  
         C39       1.0000    0.51448   0.49834   0.69277   Biso      1.000     C          -0.202151           
         C40       1.0000    0.45940   0.45347   0.62057   Biso      1.000     C          -0.14111400000000002          
         C41       1.0000    0.44432   0.45492   0.42297   Biso      1.000     C          0.307651  
         C42       1.0000    0.75348   0.07185   0.42623   Biso      1.000     C          0.640464  
         C43       1.0000    0.84782   0.16500   0.35943   Biso      1.000     C          -0.202222           
         C44       1.0000    0.79274   0.12013   0.28723   Biso      1.000     C          -0.141512           
         C45       1.0000    0.77766   0.12158   0.08963   Biso      1.000     C          0.307608  
         C46       1.0000    0.08681   0.73852   0.09290   Biso      1.000     C          0.635246  
         C47       1.0000    0.18115   0.83167   0.02610   Biso      1.000     C          -0.203206           
         C48       1.0000    0.12607   0.78680   0.95390   Biso      1.000     C          -0.141982           
         C49       1.0000    0.42014   0.40519   0.75957   Biso      1.000     C          0.640263  
         C50       1.0000    0.20726   0.87987   0.71277   Biso      1.000     C          -0.141956           
         C51       1.0000    0.59481   0.01496   0.75957   Biso      1.000     C          0.6403340000000001  
         C52       1.0000    0.01615   0.51448   0.30723   Biso      1.000     C          -0.198397           
         C53       1.0000    0.00594   0.45940   0.37943   Biso      1.000     C          -0.14163499999999998          
         C54       1.0000    0.98941   0.44432   0.57703   Biso      1.000     C          0.308188  
         C55       1.0000    0.65607   0.77766   0.91037   Biso      1.000     C          0.307263  
         C56       1.0000    0.55568   0.54508   0.57703   Biso      1.000     C          0.307315  
         C57       1.0000    0.54060   0.54653   0.37943   Biso      1.000     C          -0.141648           
         C58       1.0000    0.48552   0.50166   0.30723   Biso      1.000     C          -0.201967           
         C59       1.0000    0.91319   0.26148   0.90710   Biso      1.000     C          0.640318  
         C60       1.0000    0.67260   0.79274   0.71277   Biso      1.000     C          -0.14127699999999999          
         C61       1.0000    0.01496   0.42014   0.24043   Biso      1.000     C          0.640257  
         C62       1.0000    0.34829   0.08681   0.90710   Biso      1.000     C          0.640299  
         C63       1.0000    0.81885   0.16833   0.97390   Biso      1.000     C          -0.202355           
         C64       1.0000    0.57986   0.59481   0.24043   Biso      1.000     C          0.640378  
         C65       1.0000    0.68281   0.84782   0.64057   Biso      1.000     C          -0.202231           
         C66       1.0000    0.34948   0.18115   0.97390   Biso      1.000     C          -0.20243  
         C67       1.0000    0.33927   0.12607   0.04610   Biso      1.000     C          -0.141264           
         C68       1.0000    0.22234   0.87842   0.91037   Biso      1.000     C          0.307029  
         C69       1.0000    0.88901   0.21175   0.24370   Biso      1.000     C          0.307487  
         C70       1.0000    0.32274   0.11099   0.24370   Biso      1.000     C          0.307587  
         C71       1.0000    0.68162   0.75348   0.57377   Biso      1.000     C          0.640234  
         C72       1.0000    0.87393   0.21320   0.04610   Biso      1.000     C          -0.141486           
         Co1       1.0000    0.04900   0.68605   0.47662   Biso      1.000     Co          0.960824  
         Co2       1.0000    0.30372   0.28433   0.80995   Biso      1.000     Co          0.9616959999999999  
         Co3       1.0000    0.71567   0.01938   0.80995   Biso      1.000     Co          0.961291  
         Co4       1.0000    0.63705   0.95100   0.47662   Biso      1.000     Co          0.9617889999999999  
         Co5       1.0000    0.69628   0.71567   0.19005   Biso      1.000     Co          0.960673  
         Co6       1.0000    0.61767   0.64728   0.85671   Biso      1.000     Co          0.962016  
         Co7       1.0000    0.36295   0.04900   0.52338   Biso      1.000     Co          0.960931  
         Co8       1.0000    0.35272   0.97038   0.85671   Biso      1.000     Co          0.961714  
         Co9       1.0000    0.64728   0.02962   0.14329   Biso      1.000     Co          0.961765  
         Co10      1.0000    0.68605   0.63705   0.52338   Biso      1.000     Co          0.9608049999999999  
         Co11      1.0000    0.28433   0.98062   0.19005   Biso      1.000     Co          0.960726  
         Co12      1.0000    0.98062   0.69628   0.80995   Biso      1.000     Co          0.951307  
         Co13      1.0000    0.02962   0.38233   0.85671   Biso      1.000     Co          0.959324  
         Co14      1.0000    0.97038   0.61767   0.14329   Biso      1.000     Co          0.8274950000000001  
         Co15      1.0000    0.01938   0.30372   0.19005   Biso      1.000     Co          0.961151  
         Co16      1.0000    0.95100   0.31395   0.52338   Biso      1.000     Co          0.9606469999999999  
         Co17      1.0000    0.38233   0.35272   0.14329   Biso      1.000     Co          0.9617950000000001  
         Co18      1.0000    0.31395   0.36295   0.47662   Biso      1.000     Co          0.961302  
         H1        1.0000    0.52403   0.49677   0.82547   Biso      1.000     H          0.146446  
         H2        1.0000    0.16990   0.36060   0.15880   Biso      1.000     H          0.14649   
         H3        1.0000    0.85737   0.16343   0.49213   Biso      1.000     H          0.14645999999999998           
         H4        1.0000    0.19070   0.83010   0.15880   Biso      1.000     H          0.14643399999999998           
         H5        1.0000    0.36060   0.19070   0.84120   Biso      1.000     H          0.146503  
         H6        1.0000    0.83657   0.69393   0.49213   Biso      1.000     H          0.14668299999999998           
         H7        1.0000    0.69393   0.85737   0.50787   Biso      1.000     H          0.146533  
         H8        1.0000    0.02727   0.52403   0.17453   Biso      1.000     H          0.147448  
         H9        1.0000    0.97273   0.47597   0.82547   Biso      1.000     H          0.146846  
         H10       1.0000    0.30607   0.14263   0.49213   Biso      1.000     H          0.14654   
         H11       1.0000    0.47597   0.50323   0.17453   Biso      1.000     H          0.146508  
         H12       1.0000    0.80930   0.16990   0.84120   Biso      1.000     H          0.146563  
         H13       1.0000    0.50323   0.02727   0.82547   Biso      1.000     H          0.14654   
         H14       1.0000    0.63940   0.80930   0.15880   Biso      1.000     H          0.14656   
         H15       1.0000    0.49677   0.97273   0.17453   Biso      1.000     H          0.146518  
         H16       1.0000    0.14263   0.83657   0.50787   Biso      1.000     H          0.1462    
         H17       1.0000    0.16343   0.30607   0.50787   Biso      1.000     H          0.146463  
         H18       1.0000    0.83010   0.63940   0.84120   Biso      1.000     H          0.146534  
         O1        1.0000    0.26105   0.36499   0.26500   Biso      1.000     O          -0.532884           
         O2        1.0000    0.30246   0.33971   0.02930   Biso      1.000     O          -0.594074           
         O3        1.0000    0.25222   0.31120   0.67220   Biso      1.000     O          -0.5854239999999999           
         O4        1.0000    0.97787   0.39231   0.66113   Biso      1.000     O          -0.584084           
         O5        1.0000    0.36421   0.99362   0.30403   Biso      1.000     O          -0.593618           
         O6        1.0000    0.40562   0.96834   0.06833   Biso      1.000     O          -0.533098           
         O7        1.0000    0.41445   0.02213   0.66113   Biso      1.000     O          -0.585829           
         O8        1.0000    0.03166   0.43727   0.06833   Biso      1.000     O          -0.5331279999999999           
         O9        1.0000    0.00638   0.37058   0.30403   Biso      1.000     O          -0.593529           
         O10       1.0000    0.96913   0.67304   0.36263   Biso      1.000     O          -0.5560609999999999           
         O11       1.0000    0.92772   0.69832   0.59833   Biso      1.000     O          -0.526644           
         O12       1.0000    0.27435   0.91889   0.99447   Biso      1.000     O          -0.585415           
         O13       1.0000    0.73895   0.63501   0.73500   Biso      1.000     O          -0.5332439999999999           
         O14       1.0000    0.69754   0.66029   0.97070   Biso      1.000     O          -0.593409           
         O15       1.0000    0.74778   0.68880   0.32780   Biso      1.000     O          -0.584912           
         O16       1.0000    0.29608   0.96913   0.63737   Biso      1.000     O          -0.594133           
         O17       1.0000    0.58555   0.97787   0.33887   Biso      1.000     O          -0.585653           
         O18       1.0000    0.63579   0.00638   0.69597   Biso      1.000     O          -0.5940310000000001           
         O19       1.0000    0.59438   0.03166   0.93167   Biso      1.000     O          -0.532825           
         O20       1.0000    0.36499   0.10394   0.73500   Biso      1.000     O          -0.5330739999999999           
         O21       1.0000    0.33971   0.03725   0.97070   Biso      1.000     O          -0.5937319999999999           
         O22       1.0000    0.31120   0.05898   0.32780   Biso      1.000     O          -0.5854520000000001           
         O23       1.0000    0.91889   0.64453   0.00553   Biso      1.000     O          -0.547046           
         O24       1.0000    0.56273   0.59438   0.06833   Biso      1.000     O          -0.532704           
         O25       1.0000    0.03087   0.32696   0.63737   Biso      1.000     O          -0.593384           
         O26       1.0000    0.94102   0.25222   0.32780   Biso      1.000     O          -0.585393           
         O27       1.0000    0.02213   0.60769   0.33887   Biso      1.000     O          -0.56061  
         O28       1.0000    0.99362   0.62942   0.69597   Biso      1.000     O          -0.591815           
         O29       1.0000    0.96834   0.56273   0.93167   Biso      1.000     O          -0.49842700000000006          
         O30       1.0000    0.96275   0.30246   0.97070   Biso      1.000     O          -0.5937600000000001           
         O31       1.0000    0.89606   0.26105   0.73500   Biso      1.000     O          -0.532881           
         O32       1.0000    0.30168   0.22939   0.59833   Biso      1.000     O          -0.532776           
         O33       1.0000    0.32696   0.29608   0.36263   Biso      1.000     O          -0.5940449999999999           
         O34       1.0000    0.35547   0.27435   0.00553   Biso      1.000     O          -0.585534           
         O35       1.0000    0.05898   0.74778   0.67220   Biso      1.000     O          -0.588387           
         O36       1.0000    0.03725   0.69754   0.02930   Biso      1.000     O          -0.577375           
         O37       1.0000    0.10394   0.73895   0.26500   Biso      1.000     O          -0.532698           
         O38       1.0000    0.63501   0.89606   0.26500   Biso      1.000     O          -0.532989           
         O39       1.0000    0.08111   0.35547   0.99447   Biso      1.000     O          -0.585313           
         O40       1.0000    0.69832   0.77061   0.40167   Biso      1.000     O          -0.5326529999999999           
         O41       1.0000    0.67304   0.70392   0.63737   Biso      1.000     O          -0.5941270000000001           
         O42       1.0000    0.68880   0.94102   0.67220   Biso      1.000     O          -0.585615           
         O43       1.0000    0.72565   0.08111   0.00553   Biso      1.000     O          -0.585432           
         O44       1.0000    0.70392   0.03087   0.36263   Biso      1.000     O          -0.594101           
         O45       1.0000    0.77061   0.07228   0.59833   Biso      1.000     O          -0.53293  
         O46       1.0000    0.64453   0.72565   0.99447   Biso      1.000     O          -0.585196           
         O47       1.0000    0.60769   0.58555   0.66113   Biso      1.000     O          -0.58544  
         O48       1.0000    0.62942   0.63579   0.30403   Biso      1.000     O          -0.593878           
         O49       1.0000    0.07228   0.30168   0.40167   Biso      1.000     O          -0.53279  
         O50       1.0000    0.39231   0.41445   0.33887   Biso      1.000     O          -0.585588           
         O51       1.0000    0.37058   0.36421   0.69597   Biso      1.000     O          -0.593747           
         O52       1.0000    0.43727   0.40562   0.93167   Biso      1.000     O          -0.533043           
         O53       1.0000    0.66029   0.96275   0.02930   Biso      1.000     O          -0.593761           
         O54       1.0000    0.22939   0.92772   0.40167   Biso      1.000     O          -0.5330159999999999 