
##########################################################################
#               Crystallographic Information Format file
#               Produced by PyCifRW module
#
#  This is a CIF file.  CIF has been adopted by the International
#  Union of Crystallography as the standard for data archiving and
#  transmission.
#
#  For information on this file format, follow the CIF links at
#  http://www.iucr.org
##########################################################################

data_image0

_cell_length_a                          10.3911
_cell_length_b                          10.3911
_cell_length_c                          8.9341
_cell_angle_alpha                       90
_cell_angle_beta                        90
_cell_angle_gamma                       90
_symmetry_space_group_name_H-M          'P 1'
_symmetry_int_tables_number             1
loop_
  _symmetry_equiv_pos_as_xyz
         'x, y, z' 
loop_
  _atom_site_label
  _atom_site_occupancy
  _atom_site_fract_x
  _atom_site_fract_y
  _atom_site_fract_z
  _atom_site_thermal_displace_type
  _atom_site_B_iso_or_equiv
  _atom_site_type_symbol
  _atom_site_charge
         Co1       1.0000    0.38965   0.62843   0.15941   Biso      1.000     Co          1.304075  
         Co2       1.0000    0.87157   0.38965   0.34059   Biso      1.000     Co          1.303803  
         Co3       1.0000    0.12843   0.61035   0.65941   Biso      1.000     Co          1.302986  
         Co4       1.0000    0.11035   0.87157   0.15941   Biso      1.000     Co          1.30372   
         Co5       1.0000    0.88965   0.12843   0.84059   Biso      1.000     Co          1.303511  
         Co6       1.0000    0.62843   0.11035   0.34059   Biso      1.000     Co          1.303491  
         Co7       1.0000    0.61035   0.37157   0.84059   Biso      1.000     Co          1.303005  
         Co8       1.0000    0.37157   0.88965   0.65941   Biso      1.000     Co          1.303831  
         O1        1.0000    0.56310   0.33950   0.04690   Biso      1.000     O          -0.760583           
         O2        1.0000    0.72850   0.44330   0.21130   Biso      1.000     O          -0.728133           
         O3        1.0000    0.49920   0.49660   0.24790   Biso      1.000     O          -0.68421  
         O4        1.0000    0.57440   0.28520   0.31880   Biso      1.000     O          -0.740323           
         O5        1.0000    0.93690   0.16050   0.04690   Biso      1.000     O          -0.760884           
         O6        1.0000    0.00080   0.00340   0.24790   Biso      1.000     O          -0.684096           
         O7        1.0000    0.92560   0.21480   0.31880   Biso      1.000     O          -0.740301           
         O8        1.0000    0.66050   0.06310   0.54690   Biso      1.000     O          -0.760983           
         O9        1.0000    0.55670   0.22850   0.71130   Biso      1.000     O          -0.7279909999999999           
         O10       1.0000    0.50340   0.99920   0.74790   Biso      1.000     O          -0.684348           
         O11       1.0000    0.71480   0.07440   0.81880   Biso      1.000     O          -0.740103           
         O12       1.0000    0.83950   0.43690   0.54690   Biso      1.000     O          -0.761254           
         O13       1.0000    0.94330   0.27150   0.71130   Biso      1.000     O          -0.728033           
         O14       1.0000    0.77150   0.05670   0.21130   Biso      1.000     O          -0.7279770000000001           
         O15       1.0000    0.99660   0.50080   0.74790   Biso      1.000     O          -0.68433  
         O16       1.0000    0.21480   0.57440   0.18120   Biso      1.000     O          -0.740304           
         O17       1.0000    0.05670   0.72850   0.28870   Biso      1.000     O          -0.727988           
         O18       1.0000    0.43690   0.66050   0.95310   Biso      1.000     O          -0.76149  
         O19       1.0000    0.27150   0.55670   0.78870   Biso      1.000     O          -0.72795  
         O20       1.0000    0.50080   0.50340   0.75210   Biso      1.000     O          -0.684296           
         O21       1.0000    0.42560   0.71480   0.68120   Biso      1.000     O          -0.740175           
         O22       1.0000    0.06310   0.83950   0.95310   Biso      1.000     O          -0.761103           
         O23       1.0000    0.22850   0.94330   0.78870   Biso      1.000     O          -0.728106           
         O24       1.0000    0.00340   0.49920   0.25210   Biso      1.000     O          -0.684071           
         O25       1.0000    0.07440   0.78520   0.68120   Biso      1.000     O          -0.740179           
         O26       1.0000    0.99920   0.99660   0.75210   Biso      1.000     O          -0.684282           
         O27       1.0000    0.33950   0.93690   0.45310   Biso      1.000     O          -0.761066           
         O28       1.0000    0.44330   0.77150   0.28870   Biso      1.000     O          -0.728147           
         O29       1.0000    0.49660   0.00080   0.25210   Biso      1.000     O          -0.68401  
         O30       1.0000    0.28520   0.92560   0.18120   Biso      1.000     O          -0.740366           
         O31       1.0000    0.16050   0.56310   0.45310   Biso      1.000     O          -0.760679           
         O32       1.0000    0.78520   0.42560   0.81880   Biso      1.000     O          -0.7401810000000001           
         P1        1.0000    0.90671   0.10919   0.20256   Biso      1.000     P          1.610061  
         P2        1.0000    0.60919   0.09329   0.70256   Biso      1.000     P          1.6096620000000001  
         P3        1.0000    0.09329   0.89081   0.79744   Biso      1.000     P          1.609816  
         P4        1.0000    0.10919   0.59329   0.29744   Biso      1.000     P          1.610105  
         P5        1.0000    0.89081   0.40671   0.70256   Biso      1.000     P          1.6098649999999999  
         P6        1.0000    0.59329   0.39081   0.20256   Biso      1.000     P          1.609936  
         P7        1.0000    0.40671   0.60919   0.79744   Biso      1.000     P          1.609901  
         P8        1.0000    0.39081   0.90671   0.29744   Biso      1.000     P          1.610171 