
##########################################################################
#               Crystallographic Information Format file
#               Produced by PyCifRW module
#
#  This is a CIF file.  CIF has been adopted by the International
#  Union of Crystallography as the standard for data archiving and
#  transmission.
#
#  For information on this file format, follow the CIF links at
#  http://www.iucr.org
##########################################################################

data_image0

_cell_length_a                          7.072
_cell_length_b                          10.385
_cell_length_c                          12.842
_cell_angle_alpha                       100.695
_cell_angle_beta                        91.181
_cell_angle_gamma                       94.614
_symmetry_space_group_name_H-M          'P 1'
_symmetry_int_tables_number             1
loop_
  _symmetry_equiv_pos_as_xyz
         'x, y, z' 
loop_
  _atom_site_label
  _atom_site_occupancy
  _atom_site_fract_x
  _atom_site_fract_y
  _atom_site_fract_z
  _atom_site_thermal_displace_type
  _atom_site_B_iso_or_equiv
  _atom_site_type_symbol
  _atom_site_charge
         C1        1.0000    0.79500   0.84360   0.81550   Biso      1.000     C          0.07760700000000001           
         C2        1.0000    0.60300   0.65670   0.08510   Biso      1.000     C          -0.140346           
         C3        1.0000    0.67100   0.73060   0.01420   Biso      1.000     C          0.085487  
         C4        1.0000    0.45900   0.63300   0.26310   Biso      1.000     C          0.564997  
         C5        1.0000    0.85800   0.11460   0.85040   Biso      1.000     C          0.0060079999999999995         
         C6        1.0000    0.21400   0.75000   0.91240   Biso      1.000     C          0.069688  
         C7        1.0000    0.22200   0.66730   0.81560   Biso      1.000     C          -0.143456           
         C8        1.0000    0.27300   0.72090   0.72810   Biso      1.000     C          0.054907000000000004          
         C9        1.0000    0.31500   0.85280   0.73910   Biso      1.000     C          -0.157056           
         C10       1.0000    0.55600   0.71450   0.18460   Biso      1.000     C          0.057504  
         C11       1.0000    0.30700   0.93770   0.83780   Biso      1.000     C          0.158005  
         C12       1.0000    0.41000   0.14930   0.78740   Biso      1.000     C          -0.137992           
         C13       1.0000    0.44400   0.28550   0.81540   Biso      1.000     C          0.0575    
         C14       1.0000    0.39700   0.34330   0.91490   Biso      1.000     C          -0.14034000000000002          
         C15       1.0000    0.32900   0.26940   0.98580   Biso      1.000     C          0.085486  
         C16       1.0000    0.26700   0.63080   0.61770   Biso      1.000     C          0.6575489999999999  
         C17       1.0000    0.54100   0.36700   0.73690   Biso      1.000     C          0.564998  
         C18       1.0000    0.14200   0.88540   0.14960   Biso      1.000     C          0.006007  
         C19       1.0000    0.20500   0.15640   0.18450   Biso      1.000     C          0.07760800000000001           
         C20       1.0000    0.33700   0.07720   0.85980   Biso      1.000     C          0.13658399999999998           
         C21       1.0000    0.59000   0.85070   0.21260   Biso      1.000     C          -0.137991           
         C22       1.0000    0.73300   0.36920   0.38230   Biso      1.000     C          0.657547  
         C23       1.0000    0.69300   0.06230   0.16220   Biso      1.000     C          0.158005  
         C24       1.0000    0.68500   0.14720   0.26090   Biso      1.000     C          -0.157073           
         C25       1.0000    0.72700   0.27910   0.27190   Biso      1.000     C          0.054922000000000006          
         C26       1.0000    0.77800   0.33270   0.18440   Biso      1.000     C          -0.143458           
         C27       1.0000    0.78600   0.25000   0.08760   Biso      1.000     C          0.069691  
         C28       1.0000    0.66300   0.92280   0.14020   Biso      1.000     C          0.13658499999999998           
         H1        1.0000    0.81970   0.28580   0.02670   Biso      1.000     H          0.11257   
         H2        1.0000    0.80420   0.42440   0.18880   Biso      1.000     H          0.13758499999999999           
         H3        1.0000    0.65170   0.11270   0.32190   Biso      1.000     H          0.149812  
         H4        1.0000    0.56150   0.89320   0.28170   Biso      1.000     H          0.145645  
         H5        1.0000    0.58970   0.56480   0.06690   Biso      1.000     H          0.125898  
         H6        1.0000    0.18030   0.71420   0.97330   Biso      1.000     H          0.112569  
         H7        1.0000    0.19580   0.57560   0.81120   Biso      1.000     H          0.13758399999999998           
         H8        1.0000    0.69710   0.68850   0.94510   Biso      1.000     H          0.10951   
         H9        1.0000    0.43850   0.10680   0.71830   Biso      1.000     H          0.145643  
         H10       1.0000    0.41030   0.43520   0.93310   Biso      1.000     H          0.125898  
         H11       1.0000    0.30290   0.31150   0.05490   Biso      1.000     H          0.10951   
         H12       1.0000    0.34830   0.88730   0.67810   Biso      1.000     H          0.149812  
         N1        1.0000    0.09400   0.81370   0.19990   Biso      1.000     N          -0.390678           
         N2        1.0000    0.30340   0.13840   0.96100   Biso      1.000     N          -0.14121199999999998          
         N3        1.0000    0.25200   0.88770   0.92510   Biso      1.000     N          -0.16864  
         N4        1.0000    0.80000   0.76040   0.74410   Biso      1.000     N          -0.465714           
         N5        1.0000    0.90600   0.18630   0.80010   Biso      1.000     N          -0.390678           
         N6        1.0000    0.74800   0.11230   0.07490   Biso      1.000     N          -0.16864  
         N7        1.0000    0.20000   0.23960   0.25590   Biso      1.000     N          -0.465714           
         N8        1.0000    0.69660   0.86160   0.03900   Biso      1.000     N          -0.141211           
         O1        1.0000    0.11020   0.60930   0.57310   Biso      1.000     O          -0.667608           
         O2        1.0000    0.39260   0.51980   0.21890   Biso      1.000     O          -0.642166           
         O3        1.0000    0.44960   0.68560   0.35660   Biso      1.000     O          -0.603849           
         O4        1.0000    0.41710   0.59260   0.58560   Biso      1.000     O          -0.636894           
         O5        1.0000    0.88980   0.39070   0.42690   Biso      1.000     O          -0.667608           
         O6        1.0000    0.60740   0.48020   0.78110   Biso      1.000     O          -0.642166           
         O7        1.0000    0.55040   0.31440   0.64340   Biso      1.000     O          -0.603849           
         O8        1.0000    0.58290   0.40740   0.41440   Biso      1.000     O          -0.636894           
         Pt1       1.0000    0.21679   0.01481   0.06046   Biso      1.000     Pt          0.157994  
         Pt2       1.0000    0.78321   0.98519   0.93954   Biso      1.000     Pt          0.157994  
         Sr1       1.0000    0.75810   0.53310   0.60479   Biso      1.000     Sr          1.488263  
         Sr2       1.0000    0.24190   0.46690   0.39521   Biso      1.000     Sr          1.488261 