
##########################################################################
#               Crystallographic Information Format file
#               Produced by PyCifRW module
#
#  This is a CIF file.  CIF has been adopted by the International
#  Union of Crystallography as the standard for data archiving and
#  transmission.
#
#  For information on this file format, follow the CIF links at
#  http://www.iucr.org
##########################################################################

data_image0

_cell_length_a                          7.3068
_cell_length_b                          15.226
_cell_length_c                          17.634
_cell_angle_alpha                       90
_cell_angle_beta                        90
_cell_angle_gamma                       94.4477
_symmetry_space_group_name_H-M          'P 1'
_symmetry_int_tables_number             1
loop_
  _symmetry_equiv_pos_as_xyz
         'x, y, z' 
loop_
  _atom_site_label
  _atom_site_occupancy
  _atom_site_fract_x
  _atom_site_fract_y
  _atom_site_fract_z
  _atom_site_thermal_displace_type
  _atom_site_B_iso_or_equiv
  _atom_site_type_symbol
  _atom_site_charge
         Ba1       1.0000    0.75410   0.07911   0.04471   Biso      1.000     Ba          1.486182  
         Ba2       1.0000    0.74590   0.42089   0.54471   Biso      1.000     Ba          1.486182  
         Ba3       1.0000    0.24590   0.92089   0.95529   Biso      1.000     Ba          1.486183  
         Ba4       1.0000    0.25410   0.57911   0.45529   Biso      1.000     Ba          1.486183  
         C1        1.0000    0.35170   0.43040   0.90470   Biso      1.000     C          0.128071  
         C2        1.0000    0.30060   0.36690   0.96600   Biso      1.000     C          0.162551  
         C3        1.0000    0.32130   0.27740   0.95890   Biso      1.000     C          -0.15957  
         C4        1.0000    0.26410   0.22120   0.01880   Biso      1.000     C          0.034871  
         C5        1.0000    0.19710   0.25850   0.08410   Biso      1.000     C          -0.142034           
         C6        1.0000    0.18570   0.34790   0.08790   Biso      1.000     C          0.089732  
         C7        1.0000    0.61540   0.04620   0.37160   Biso      1.000     C          -0.020042           
         C8        1.0000    0.05920   0.95350   0.79320   Biso      1.000     C          0.580186  
         C9        1.0000    0.85820   0.07770   0.63080   Biso      1.000     C          0.078074  
         C10       1.0000    0.42570   0.40810   0.83540   Biso      1.000     C          -0.15369  
         C11       1.0000    0.93310   0.05870   0.70000   Biso      1.000     C          -0.127469           
         C12       1.0000    0.97120   0.97340   0.71790   Biso      1.000     C          0.062652  
         C13       1.0000    0.92570   0.90810   0.66460   Biso      1.000     C          -0.153692           
         C14       1.0000    0.85170   0.93040   0.59530   Biso      1.000     C          0.128073  
         C15       1.0000    0.80060   0.86690   0.53400   Biso      1.000     C          0.162551  
         C16       1.0000    0.82130   0.77740   0.54110   Biso      1.000     C          -0.15957  
         C17       1.0000    0.76410   0.72120   0.48120   Biso      1.000     C          0.034871  
         C18       1.0000    0.76960   0.62430   0.49100   Biso      1.000     C          0.618382  
         C19       1.0000    0.47120   0.47340   0.78210   Biso      1.000     C          0.062651  
         C20       1.0000    0.35820   0.57770   0.86920   Biso      1.000     C          0.078074  
         C21       1.0000    0.69710   0.75850   0.41590   Biso      1.000     C          -0.142034           
         C22       1.0000    0.29300   0.83760   0.51420   Biso      1.000     C          0.076016  
         C23       1.0000    0.38460   0.95380   0.62840   Biso      1.000     C          -0.020042           
         C24       1.0000    0.94080   0.04650   0.20680   Biso      1.000     C          0.580186  
         C25       1.0000    0.23040   0.37570   0.50900   Biso      1.000     C          0.618382  
         C26       1.0000    0.14180   0.92230   0.36920   Biso      1.000     C          0.078074  
         C27       1.0000    0.06690   0.94130   0.30000   Biso      1.000     C          -0.127469           
         C28       1.0000    0.02880   0.02660   0.28210   Biso      1.000     C          0.062652  
         C29       1.0000    0.07430   0.09190   0.33540   Biso      1.000     C          -0.153692           
         C30       1.0000    0.43310   0.55870   0.80000   Biso      1.000     C          -0.127468           
         C31       1.0000    0.14830   0.06960   0.40470   Biso      1.000     C          0.128073  
         C32       1.0000    0.17870   0.22260   0.45890   Biso      1.000     C          -0.15957  
         C33       1.0000    0.23590   0.27880   0.51880   Biso      1.000     C          0.034871  
         C34       1.0000    0.30290   0.24150   0.58410   Biso      1.000     C          -0.142034           
         C35       1.0000    0.31430   0.15210   0.58790   Biso      1.000     C          0.089733  
         C36       1.0000    0.20700   0.66240   0.01420   Biso      1.000     C          0.076016  
         C37       1.0000    0.11540   0.54620   0.12840   Biso      1.000     C          -0.020042           
         C38       1.0000    0.55920   0.45350   0.70680   Biso      1.000     C          0.580186  
         C39       1.0000    0.26960   0.12430   0.00900   Biso      1.000     C          0.618382  
         C40       1.0000    0.19940   0.13310   0.46600   Biso      1.000     C          0.162551  
         C41       1.0000    0.68570   0.84790   0.41210   Biso      1.000     C          0.089733  
         C42       1.0000    0.70700   0.16240   0.48580   Biso      1.000     C          0.076016  
         C43       1.0000    0.88460   0.45380   0.87160   Biso      1.000     C          -0.020042           
         C44       1.0000    0.81430   0.65210   0.91210   Biso      1.000     C          0.089725  
         C45       1.0000    0.80290   0.74150   0.91590   Biso      1.000     C          -0.142027           
         C46       1.0000    0.73590   0.77880   0.98120   Biso      1.000     C          0.03487   
         C47       1.0000    0.69940   0.63310   0.03400   Biso      1.000     C          0.162551  
         C48       1.0000    0.64830   0.56960   0.09530   Biso      1.000     C          0.128071  
         C49       1.0000    0.67870   0.72260   0.04110   Biso      1.000     C          -0.15957  
         C50       1.0000    0.52880   0.52660   0.21790   Biso      1.000     C          0.062651  
         C51       1.0000    0.56690   0.44130   0.20000   Biso      1.000     C          -0.127469           
         C52       1.0000    0.64180   0.42230   0.13080   Biso      1.000     C          0.078075  
         C53       1.0000    0.73040   0.87570   0.99100   Biso      1.000     C          0.618382  
         C54       1.0000    0.44080   0.54650   0.29320   Biso      1.000     C          0.580186  
         C55       1.0000    0.57430   0.59190   0.16460   Biso      1.000     C          -0.15369  
         C56       1.0000    0.79300   0.33760   0.98580   Biso      1.000     C          0.076016  
         H1        1.0000    0.65930   0.72230   0.37400   Biso      1.000     H          0.14379   
         H2        1.0000    0.83370   0.13680   0.62010   Biso      1.000     H          0.104456  
         H3        1.0000    0.95900   0.10460   0.73580   Biso      1.000     H          0.138927  
         H4        1.0000    0.94500   0.84840   0.67550   Biso      1.000     H          0.146475  
         H5        1.0000    0.87320   0.75470   0.58570   Biso      1.000     H          0.15423   
         H6        1.0000    0.85820   0.62730   0.86680   Biso      1.000     H          0.11567   
         H7        1.0000    0.54100   0.39540   0.23580   Biso      1.000     H          0.138927  
         H8        1.0000    0.55500   0.65160   0.17550   Biso      1.000     H          0.146475  
         H9        1.0000    0.62680   0.74530   0.08570   Biso      1.000     H          0.15423   
         H10       1.0000    0.84070   0.77770   0.87400   Biso      1.000     H          0.143789  
         H11       1.0000    0.14180   0.37270   0.13320   Biso      1.000     H          0.115669  
         H12       1.0000    0.64180   0.87270   0.36680   Biso      1.000     H          0.115669  
         H13       1.0000    0.15930   0.22230   0.12600   Biso      1.000     H          0.14379   
         H14       1.0000    0.66630   0.36320   0.12010   Biso      1.000     H          0.104456  
         H15       1.0000    0.44500   0.34840   0.82450   Biso      1.000     H          0.146475  
         H16       1.0000    0.45900   0.60460   0.76420   Biso      1.000     H          0.138927  
         H17       1.0000    0.33370   0.63680   0.87990   Biso      1.000     H          0.104456  
         H18       1.0000    0.35820   0.12730   0.63320   Biso      1.000     H          0.115669  
         H19       1.0000    0.34070   0.27770   0.62600   Biso      1.000     H          0.14379   
         H20       1.0000    0.12680   0.24530   0.41430   Biso      1.000     H          0.15423   
         H21       1.0000    0.05500   0.15160   0.32450   Biso      1.000     H          0.146475  
         H22       1.0000    0.04100   0.89540   0.26420   Biso      1.000     H          0.138927  
         H23       1.0000    0.16630   0.86320   0.37990   Biso      1.000     H          0.104456  
         H24       1.0000    0.37320   0.25470   0.91430   Biso      1.000     H          0.15423   
         N1        1.0000    0.31880   0.51630   0.92170   Biso      1.000     N          -0.148933           
         N2        1.0000    0.05860   0.55040   0.18900   Biso      1.000     N          -0.375718           
         N3        1.0000    0.20970   0.73640   0.00160   Biso      1.000     N          -0.466044           
         N4        1.0000    0.29030   0.76360   0.50160   Biso      1.000     N          -0.466044           
         N5        1.0000    0.18120   0.98370   0.42170   Biso      1.000     N          -0.148933           
         N6        1.0000    0.44140   0.94960   0.68900   Biso      1.000     N          -0.375718           
         N7        1.0000    0.70970   0.23640   0.49840   Biso      1.000     N          -0.466044           
         N8        1.0000    0.26570   0.09840   0.52980   Biso      1.000     N          -0.148144           
         N9        1.0000    0.55860   0.05040   0.31100   Biso      1.000     N          -0.375718           
         N10       1.0000    0.23430   0.40160   0.02980   Biso      1.000     N          -0.148144           
         N11       1.0000    0.73430   0.90160   0.47020   Biso      1.000     N          -0.148144           
         N12       1.0000    0.79030   0.26360   0.99840   Biso      1.000     N          -0.466044           
         N13       1.0000    0.94140   0.44960   0.81100   Biso      1.000     N          -0.375718           
         N14       1.0000    0.68120   0.48370   0.07830   Biso      1.000     N          -0.148933           
         N15       1.0000    0.76570   0.59840   0.97020   Biso      1.000     N          -0.148143           
         N16       1.0000    0.81880   0.01630   0.57830   Biso      1.000     N          -0.148933           
         O1        1.0000    0.08620   0.40490   0.48290   Biso      1.000     O          -0.664824           
         O2        1.0000    0.37300   0.42330   0.52590   Biso      1.000     O          -0.623415           
         O3        1.0000    0.60530   0.51770   0.66430   Biso      1.000     O          -0.632096           
         O4        1.0000    0.58540   0.37490   0.69160   Biso      1.000     O          -0.63121  
         O5        1.0000    0.41380   0.09510   0.98290   Biso      1.000     O          -0.664824           
         O6        1.0000    0.12700   0.07670   0.02590   Biso      1.000     O          -0.623415           
         O7        1.0000    0.10530   0.01770   0.83570   Biso      1.000     O          -0.632096           
         O8        1.0000    0.08540   0.87490   0.80840   Biso      1.000     O          -0.63121  
         O9        1.0000    0.91380   0.59510   0.51710   Biso      1.000     O          -0.664824           
         O10       1.0000    0.41460   0.62510   0.30840   Biso      1.000     O          -0.63121  
         O11       1.0000    0.39470   0.48230   0.33570   Biso      1.000     O          -0.632096           
         O12       1.0000    0.58620   0.90490   0.01710   Biso      1.000     O          -0.664824           
         O13       1.0000    0.87300   0.92330   0.97410   Biso      1.000     O          -0.623415           
         O14       1.0000    0.91460   0.12510   0.19160   Biso      1.000     O          -0.63121  
         O15       1.0000    0.62700   0.57670   0.47410   Biso      1.000     O          -0.623415           
         O16       1.0000    0.89470   0.98230   0.16430   Biso      1.000     O          -0.632095           
         Pt1       1.0000    0.78811   0.46491   0.97359   Biso      1.000     Pt          0.172925  
         Pt2       1.0000    0.71189   0.03509   0.47359   Biso      1.000     Pt          0.172925  
         Pt3       1.0000    0.21189   0.53509   0.02641   Biso      1.000     Pt          0.172925  
         Pt4       1.0000    0.28811   0.96491   0.52641   Biso      1.000     Pt          0.172925 