
##########################################################################
#               Crystallographic Information Format file
#               Produced by PyCifRW module
#
#  This is a CIF file.  CIF has been adopted by the International
#  Union of Crystallography as the standard for data archiving and
#  transmission.
#
#  For information on this file format, follow the CIF links at
#  http://www.iucr.org
##########################################################################

data_image0

_cell_length_a                          8.395
_cell_length_b                          9.562
_cell_length_c                          16.475
_cell_angle_alpha                       90
_cell_angle_beta                        90
_cell_angle_gamma                       90
_symmetry_space_group_name_H-M          'P 1'
_symmetry_int_tables_number             1
loop_
  _symmetry_equiv_pos_as_xyz
         'x, y, z' 
loop_
  _atom_site_label
  _atom_site_occupancy
  _atom_site_fract_x
  _atom_site_fract_y
  _atom_site_fract_z
  _atom_site_thermal_displace_type
  _atom_site_B_iso_or_equiv
  _atom_site_type_symbol
  _atom_site_charge
         C1        1.0000    0.69630   0.13910   0.74994   Biso      1.000     C          0.092168  
         C2        1.0000    0.24110   0.79740   0.18111   Biso      1.000     C          -0.205569           
         C3        1.0000    0.22510   0.65300   0.17918   Biso      1.000     C          0.152435  
         C4        1.0000    0.27770   0.57810   0.24614   Biso      1.000     C          -0.190143           
         C5        1.0000    0.34170   0.64970   0.31180   Biso      1.000     C          0.110494  
         C6        1.0000    0.15070   0.57680   0.10732   Biso      1.000     C          -0.190765           
         C7        1.0000    0.46240   0.35190   0.00848   Biso      1.000     C          0.637036  
         C8        1.0000    0.39260   0.44800   0.07303   Biso      1.000     C          -0.269451           
         C9        1.0000    0.30370   0.86090   0.24994   Biso      1.000     C          0.092169  
         C10       1.0000    0.20240   0.70834   0.93300   Biso      1.000     C          0.628376  
         C11       1.0000    0.75890   0.20260   0.68111   Biso      1.000     C          -0.205568           
         C12       1.0000    0.77490   0.34700   0.67918   Biso      1.000     C          0.152435  
         C13       1.0000    0.72230   0.42190   0.74614   Biso      1.000     C          -0.190143           
         C14       1.0000    0.65830   0.35030   0.81180   Biso      1.000     C          0.110494  
         C15       1.0000    0.84930   0.42320   0.60732   Biso      1.000     C          -0.190765           
         C16       1.0000    0.53760   0.64810   0.50848   Biso      1.000     C          0.637036  
         C17       1.0000    0.60740   0.55200   0.57303   Biso      1.000     C          -0.269451           
         C18       1.0000    0.32240   0.65300   0.99430   Biso      1.000     C          -0.284572           
         C19       1.0000    0.17760   0.15300   0.49430   Biso      1.000     C          -0.284572           
         C20       1.0000    0.29760   0.20834   0.43300   Biso      1.000     C          0.628376  
         C21       1.0000    0.10740   0.94800   0.57303   Biso      1.000     C          -0.269451           
         C22       1.0000    0.80370   0.63910   0.24994   Biso      1.000     C          0.092169  
         C23       1.0000    0.74110   0.70260   0.18111   Biso      1.000     C          -0.205568           
         C24       1.0000    0.72510   0.84700   0.17918   Biso      1.000     C          0.152435  
         C25       1.0000    0.77770   0.92190   0.24614   Biso      1.000     C          -0.190143           
         C26       1.0000    0.84170   0.85030   0.31180   Biso      1.000     C          0.110494  
         C27       1.0000    0.65070   0.92320   0.10732   Biso      1.000     C          -0.190765           
         C28       1.0000    0.96240   0.14810   0.00848   Biso      1.000     C          0.637036  
         C29       1.0000    0.89260   0.05200   0.07303   Biso      1.000     C          -0.269451           
         C30       1.0000    0.70240   0.79166   0.93300   Biso      1.000     C          0.628376  
         C31       1.0000    0.82240   0.84700   0.99430   Biso      1.000     C          -0.284572           
         C32       1.0000    0.19630   0.36090   0.74994   Biso      1.000     C          0.092169  
         C33       1.0000    0.25890   0.29740   0.68111   Biso      1.000     C          -0.205568           
         C34       1.0000    0.27490   0.15300   0.67918   Biso      1.000     C          0.152435  
         C35       1.0000    0.22230   0.07810   0.74614   Biso      1.000     C          -0.190143           
         C36       1.0000    0.15830   0.14970   0.81180   Biso      1.000     C          0.110494  
         C37       1.0000    0.34930   0.07680   0.60732   Biso      1.000     C          -0.190765           
         C38       1.0000    0.03760   0.85190   0.50848   Biso      1.000     C          0.637036  
         C39       1.0000    0.79760   0.29166   0.43300   Biso      1.000     C          0.628376  
         C40       1.0000    0.67760   0.34700   0.49430   Biso      1.000     C          -0.284572           
         Cd1       1.0000    0.61451   0.10452   0.93859   Biso      1.000     Cd          0.882476  
         Cd2       1.0000    0.38549   0.89548   0.43859   Biso      1.000     Cd          0.882476  
         Cd3       1.0000    0.11451   0.39548   0.93859   Biso      1.000     Cd          0.882476  
         Cd4       1.0000    0.88549   0.60452   0.43859   Biso      1.000     Cd          0.882476  
         H1        1.0000    0.77010   0.02100   0.24700   Biso      1.000     H          0.141317  
         H2        1.0000    0.09610   0.49220   0.12800   Biso      1.000     H          0.116957  
         H3        1.0000    0.06820   0.63820   0.08330   Biso      1.000     H          0.112198  
         H4        1.0000    0.35350   0.39070   0.11890   Biso      1.000     H          0.144632  
         H5        1.0000    0.47760   0.51020   0.09390   Biso      1.000     H          0.119762  
         H6        1.0000    0.42010   0.62370   0.96520   Biso      1.000     H          0.149152  
         H7        1.0000    0.35200   0.72940   0.03200   Biso      1.000     H          0.104946  
         H8        1.0000    0.68850   0.04000   0.75090   Biso      1.000     H          0.101579  
         H9        1.0000    0.79040   0.14760   0.63580   Biso      1.000     H          0.131437  
         H10       1.0000    0.87900   0.90280   0.35690   Biso      1.000     H          0.103435  
         H11       1.0000    0.37900   0.59720   0.35690   Biso      1.000     H          0.103435  
         H12       1.0000    0.90390   0.50780   0.62800   Biso      1.000     H          0.116957  
         H13       1.0000    0.93180   0.36180   0.58330   Biso      1.000     H          0.112198  
         H14       1.0000    0.64650   0.60930   0.61890   Biso      1.000     H          0.144632  
         H15       1.0000    0.52240   0.48980   0.59390   Biso      1.000     H          0.119762  
         H16       1.0000    0.57990   0.37630   0.46520   Biso      1.000     H          0.149152  
         H17       1.0000    0.64800   0.27060   0.53200   Biso      1.000     H          0.104946  
         H18       1.0000    0.72990   0.52100   0.74700   Biso      1.000     H          0.141317  
         H19       1.0000    0.27010   0.47900   0.24700   Biso      1.000     H          0.141317  
         H20       1.0000    0.62100   0.40280   0.85690   Biso      1.000     H          0.103435  
         H21       1.0000    0.31150   0.96000   0.25090   Biso      1.000     H          0.101579  
         H22       1.0000    0.20960   0.85240   0.13580   Biso      1.000     H          0.131437  
         H23       1.0000    0.70960   0.64760   0.13580   Biso      1.000     H          0.131437  
         H24       1.0000    0.81150   0.54000   0.25090   Biso      1.000     H          0.101579  
         H25       1.0000    0.59610   0.00780   0.12800   Biso      1.000     H          0.116957  
         H26       1.0000    0.56820   0.86180   0.08330   Biso      1.000     H          0.112198  
         H27       1.0000    0.85350   0.10930   0.11890   Biso      1.000     H          0.144631  
         H28       1.0000    0.97760   0.98980   0.09390   Biso      1.000     H          0.119762  
         H29       1.0000    0.92010   0.87630   0.96520   Biso      1.000     H          0.149152  
         H30       1.0000    0.85200   0.77060   0.03200   Biso      1.000     H          0.104946  
         H31       1.0000    0.18850   0.46000   0.75090   Biso      1.000     H          0.101579  
         H32       1.0000    0.22990   0.97900   0.74700   Biso      1.000     H          0.141317  
         H33       1.0000    0.12100   0.09720   0.85690   Biso      1.000     H          0.103435  
         H34       1.0000    0.40390   0.99220   0.62800   Biso      1.000     H          0.116957  
         H35       1.0000    0.43180   0.13820   0.58330   Biso      1.000     H          0.112198  
         H36       1.0000    0.14650   0.89070   0.61890   Biso      1.000     H          0.144631  
         H37       1.0000    0.02240   0.01020   0.59390   Biso      1.000     H          0.119762  
         H38       1.0000    0.07990   0.12370   0.46520   Biso      1.000     H          0.149152  
         H39       1.0000    0.14800   0.22940   0.53200   Biso      1.000     H          0.104946  
         H40       1.0000    0.29040   0.35240   0.63580   Biso      1.000     H          0.131437  
         N1        1.0000    0.14680   0.28950   0.81462   Biso      1.000     N          -0.225603           
         N2        1.0000    0.85320   0.71050   0.31462   Biso      1.000     N          -0.225603           
         N3        1.0000    0.76140   0.96633   0.04182   Biso      1.000     N          -0.063091           
         N4        1.0000    0.23860   0.03367   0.54182   Biso      1.000     N          -0.063091           
         N5        1.0000    0.64680   0.21050   0.81462   Biso      1.000     N          -0.225603           
         N6        1.0000    0.26140   0.53367   0.04182   Biso      1.000     N          -0.063091           
         N7        1.0000    0.73860   0.46633   0.54182   Biso      1.000     N          -0.063091           
         N8        1.0000    0.35320   0.78950   0.31462   Biso      1.000     N          -0.225603           
         O1        1.0000    0.70000   0.66397   0.91876   Biso      1.000     O          -0.578366           
         O2        1.0000    0.61500   0.87962   0.89641   Biso      1.000     O          -0.588832           
         O3        1.0000    0.90506   0.79476   0.52480   Biso      1.000     O          -0.566081           
         O4        1.0000    0.11182   0.82931   0.44502   Biso      1.000     O          -0.565927           
         O5        1.0000    0.30000   0.33603   0.41876   Biso      1.000     O          -0.578366           
         O6        1.0000    0.38500   0.12038   0.39641   Biso      1.000     O          -0.588832           
         O7        1.0000    0.59494   0.29476   0.02480   Biso      1.000     O          -0.566081           
         O8        1.0000    0.38818   0.32931   0.94502   Biso      1.000     O          -0.565927           
         O9        1.0000    0.11500   0.62038   0.89641   Biso      1.000     O          -0.588832           
         O10       1.0000    0.40506   0.70524   0.52480   Biso      1.000     O          -0.566081           
         O11       1.0000    0.61182   0.67069   0.44502   Biso      1.000     O          -0.565927           
         O12       1.0000    0.80000   0.16397   0.41876   Biso      1.000     O          -0.578367           
         O13       1.0000    0.88500   0.37962   0.39641   Biso      1.000     O          -0.588832           
         O14       1.0000    0.88818   0.17069   0.94502   Biso      1.000     O          -0.565927           
         O15       1.0000    0.20000   0.83603   0.91876   Biso      1.000     O          -0.578367           
         O16       1.0000    0.09494   0.20524   0.02480   Biso      1.000     O          -0.566081 