
##########################################################################
#               Crystallographic Information Format file
#               Produced by PyCifRW module
#
#  This is a CIF file.  CIF has been adopted by the International
#  Union of Crystallography as the standard for data archiving and
#  transmission.
#
#  For information on this file format, follow the CIF links at
#  http://www.iucr.org
##########################################################################

data_image0

_cell_length_a                          9.272
_cell_length_b                          9.272
_cell_length_c                          17.716
_cell_angle_alpha                       90
_cell_angle_beta                        90
_cell_angle_gamma                       120
_symmetry_space_group_name_H-M          'P 1'
_symmetry_int_tables_number             1
loop_
  _symmetry_equiv_pos_as_xyz
         'x, y, z' 
loop_
  _atom_site_label
  _atom_site_occupancy
  _atom_site_fract_x
  _atom_site_fract_y
  _atom_site_fract_z
  _atom_site_thermal_displace_type
  _atom_site_B_iso_or_equiv
  _atom_site_type_symbol
  _atom_site_charge
         C1        1.0000    0.81590   0.15870   0.10470   Biso      1.000     C          0.699959  
         C2        1.0000    0.60320   0.69570   0.94780   Biso      1.000     C          -0.194649           
         C3        1.0000    0.18410   0.34280   0.89530   Biso      1.000     C          0.6999609999999999  
         C4        1.0000    0.09250   0.39680   0.94780   Biso      1.000     C          -0.19465  
         C5        1.0000    0.15870   0.81590   0.89530   Biso      1.000     C          0.699962  
         C6        1.0000    0.30430   0.90750   0.94780   Biso      1.000     C          -0.194649           
         C7        1.0000    0.65720   0.84130   0.60470   Biso      1.000     C          0.699959  
         C8        1.0000    0.60320   0.69570   0.55220   Biso      1.000     C          -0.194649           
         C9        1.0000    0.18410   0.34280   0.60470   Biso      1.000     C          0.6999609999999999  
         C10       1.0000    0.09250   0.39680   0.55220   Biso      1.000     C          -0.19465  
         C11       1.0000    0.15870   0.81590   0.60470   Biso      1.000     C          0.699962  
         C12       1.0000    0.30430   0.90750   0.55220   Biso      1.000     C          -0.194649           
         C13       1.0000    0.34280   0.18410   0.39530   Biso      1.000     C          0.699962  
         C14       1.0000    0.90750   0.30430   0.05220   Biso      1.000     C          -0.194649           
         C15       1.0000    0.84130   0.65720   0.10470   Biso      1.000     C          0.6999609999999999  
         C16       1.0000    0.69570   0.60320   0.05220   Biso      1.000     C          -0.19465  
         C17       1.0000    0.34280   0.18410   0.10470   Biso      1.000     C          0.699962  
         C18       1.0000    0.39680   0.09250   0.05220   Biso      1.000     C          -0.194649           
         C19       1.0000    0.81590   0.15870   0.39530   Biso      1.000     C          0.699959  
         C20       1.0000    0.90750   0.30430   0.44780   Biso      1.000     C          -0.194649           
         C21       1.0000    0.65720   0.84130   0.89530   Biso      1.000     C          0.699958  
         C22       1.0000    0.84130   0.65720   0.39530   Biso      1.000     C          0.699962  
         C23       1.0000    0.69570   0.60320   0.44780   Biso      1.000     C          -0.19465  
         C24       1.0000    0.39680   0.09250   0.44780   Biso      1.000     C          -0.194649           
         Gd1       1.0000    0.00000   0.00000   0.00000   Biso      1.000     Gd          1.924909  
         Gd2       1.0000    0.00000   0.00000   0.50000   Biso      1.000     Gd          1.92491   
         H1        1.0000    0.83190   0.32240   0.47650   Biso      1.000     H          0.11839000000000001           
         H2        1.0000    0.57350   0.59980   0.91810   Biso      1.000     H          0.131233  
         H3        1.0000    0.50950   0.67760   0.97650   Biso      1.000     H          0.11839000000000001           
         H4        1.0000    0.02630   0.42650   0.91810   Biso      1.000     H          0.131234  
         H5        1.0000    0.16810   0.49050   0.97650   Biso      1.000     H          0.11839100000000001           
         H6        1.0000    0.40020   0.97370   0.91810   Biso      1.000     H          0.131234  
         H7        1.0000    0.32240   0.83190   0.97650   Biso      1.000     H          0.11839000000000001           
         H8        1.0000    0.57350   0.59980   0.58190   Biso      1.000     H          0.131233  
         H9        1.0000    0.50950   0.67760   0.52350   Biso      1.000     H          0.11839000000000001           
         H10       1.0000    0.97370   0.40020   0.41810   Biso      1.000     H          0.131233  
         H11       1.0000    0.02630   0.42650   0.58190   Biso      1.000     H          0.131234  
         H12       1.0000    0.40020   0.97370   0.58190   Biso      1.000     H          0.131234  
         H13       1.0000    0.32240   0.83190   0.52350   Biso      1.000     H          0.11839000000000001           
         H14       1.0000    0.97370   0.40020   0.08190   Biso      1.000     H          0.131233  
         H15       1.0000    0.83190   0.32240   0.02350   Biso      1.000     H          0.11839000000000001           
         H16       1.0000    0.59980   0.57350   0.08190   Biso      1.000     H          0.131234  
         H17       1.0000    0.67760   0.50950   0.02350   Biso      1.000     H          0.11839100000000001           
         H18       1.0000    0.42650   0.02630   0.08190   Biso      1.000     H          0.131234  
         H19       1.0000    0.49050   0.16810   0.47650   Biso      1.000     H          0.11839000000000001           
         H20       1.0000    0.42650   0.02630   0.41810   Biso      1.000     H          0.131234  
         H21       1.0000    0.67760   0.50950   0.47650   Biso      1.000     H          0.11839100000000001           
         H22       1.0000    0.49050   0.16810   0.02350   Biso      1.000     H          0.11839000000000001           
         H23       1.0000    0.16810   0.49050   0.52350   Biso      1.000     H          0.11839100000000001           
         H24       1.0000    0.59980   0.57350   0.41810   Biso      1.000     H          0.131234  
         La1       1.0000    0.33333   0.66666   0.75000   Biso      1.000     La          2.023094  
         La2       1.0000    0.66667   0.33334   0.25000   Biso      1.000     La          2.023094  
         O1        1.0000    0.73170   0.73170   0.50000   Biso      1.000     O          -0.22762  
         O2        1.0000    0.26830   0.00000   0.00000   Biso      1.000     O          -0.227622           
         O3        1.0000    0.00000   0.26830   0.00000   Biso      1.000     O          -0.22762  
         O4        1.0000    0.73170   0.73170   0.00000   Biso      1.000     O          -0.22762  
         O5        1.0000    0.44100   0.26810   0.34415   Biso      1.000     O          -0.679214           
         O6        1.0000    0.20450   0.17240   0.40713   Biso      1.000     O          -0.6199140000000001           
         O7        1.0000    0.82710   0.55900   0.34415   Biso      1.000     O          -0.6792159999999999           
         O8        1.0000    0.96790   0.79550   0.40713   Biso      1.000     O          -0.619908           
         O9        1.0000    0.73190   0.17290   0.34415   Biso      1.000     O          -0.6792090000000001           
         O10       1.0000    0.82760   0.03210   0.40713   Biso      1.000     O          -0.6199140000000001           
         O11       1.0000    0.44100   0.26810   0.15585   Biso      1.000     O          -0.679214           
         O12       1.0000    0.20450   0.17240   0.09287   Biso      1.000     O          -0.6199140000000001           
         O13       1.0000    0.82710   0.55900   0.15585   Biso      1.000     O          -0.6792159999999999           
         O14       1.0000    0.00000   0.26830   0.50000   Biso      1.000     O          -0.227621           
         O15       1.0000    0.96790   0.79550   0.09287   Biso      1.000     O          -0.619908           
         O16       1.0000    0.82760   0.03210   0.09287   Biso      1.000     O          -0.6199140000000001           
         O17       1.0000    0.17290   0.73190   0.65585   Biso      1.000     O          -0.679214           
         O18       1.0000    0.03210   0.82760   0.59287   Biso      1.000     O          -0.6199140000000001           
         O19       1.0000    0.26810   0.44100   0.65585   Biso      1.000     O          -0.6792159999999999           
         O20       1.0000    0.17240   0.20450   0.59287   Biso      1.000     O          -0.619908           
         O21       1.0000    0.55900   0.82710   0.65585   Biso      1.000     O          -0.6792090000000001           
         O22       1.0000    0.79550   0.96790   0.59287   Biso      1.000     O          -0.619915           
         O23       1.0000    0.17290   0.73190   0.84415   Biso      1.000     O          -0.679214           
         O24       1.0000    0.03210   0.82760   0.90713   Biso      1.000     O          -0.6199140000000001           
         O25       1.0000    0.26810   0.44100   0.84415   Biso      1.000     O          -0.6792159999999999           
         O26       1.0000    0.17240   0.20450   0.90713   Biso      1.000     O          -0.619908           
         O27       1.0000    0.55900   0.82710   0.84415   Biso      1.000     O          -0.6792090000000001           
         O28       1.0000    0.79550   0.96790   0.90713   Biso      1.000     O          -0.6199140000000001           
         O29       1.0000    0.73190   0.17290   0.15585   Biso      1.000     O          -0.6792090000000001           
         O30       1.0000    0.26830   0.00000   0.50000   Biso      1.000     O          -0.227622 