
##########################################################################
#               Crystallographic Information Format file
#               Produced by PyCifRW module
#
#  This is a CIF file.  CIF has been adopted by the International
#  Union of Crystallography as the standard for data archiving and
#  transmission.
#
#  For information on this file format, follow the CIF links at
#  http://www.iucr.org
##########################################################################

data_image0

_cell_length_a                          6.082
_cell_length_b                          10.5091
_cell_length_c                          13.628
_cell_angle_alpha                       72.398
_cell_angle_beta                        88.98
_cell_angle_gamma                       89.043
_symmetry_space_group_name_H-M          'P 1'
_symmetry_int_tables_number             1
loop_
  _symmetry_equiv_pos_as_xyz
         'x, y, z' 
loop_
  _atom_site_label
  _atom_site_occupancy
  _atom_site_fract_x
  _atom_site_fract_y
  _atom_site_fract_z
  _atom_site_thermal_displace_type
  _atom_site_B_iso_or_equiv
  _atom_site_type_symbol
  _atom_site_charge
         C1        1.0000    0.10960   0.65780   0.95060   Biso      1.000     C          0.576092  
         C2        1.0000    0.68170   0.42680   0.02270   Biso      1.000     C          0.101101  
         C3        1.0000    0.38240   0.51730   0.07870   Biso      1.000     C          0.08276900000000001           
         C4        1.0000    0.11720   0.47110   0.42540   Biso      1.000     C          0.095978  
         C5        1.0000    0.79510   0.45650   0.51480   Biso      1.000     C          0.094159  
         C6        1.0000    0.60000   0.13180   0.52700   Biso      1.000     C          0.567731  
         C7        1.0000    0.89040   0.34220   0.04940   Biso      1.000     C          0.576092  
         C8        1.0000    0.75310   0.56770   0.65620   Biso      1.000     C          0.598449  
         C9        1.0000    0.10900   0.05260   0.41100   Biso      1.000     C          0.08140499999999999           
         C10       1.0000    0.40000   0.86820   0.47300   Biso      1.000     C          0.567732  
         C11       1.0000    0.20490   0.54350   0.48520   Biso      1.000     C          0.094158  
         C12       1.0000    0.88280   0.52890   0.57460   Biso      1.000     C          0.09597699999999999           
         C13       1.0000    0.81330   0.06000   0.51390   Biso      1.000     C          0.089282  
         C14       1.0000    0.31830   0.57320   0.97730   Biso      1.000     C          0.101102  
         C15       1.0000    0.89100   0.94740   0.58900   Biso      1.000     C          0.08140499999999999           
         C16       1.0000    0.18670   0.94000   0.48610   Biso      1.000     C          0.089283  
         C17       1.0000    0.24690   0.43230   0.34380   Biso      1.000     C          0.598448  
         C18       1.0000    0.61760   0.48270   0.92130   Biso      1.000     C          0.08277000000000001           
         H1        1.0000    0.65060   0.42770   0.52680   Biso      1.000     H          0.114718  
         H2        1.0000    0.18950   0.08630   0.35030   Biso      1.000     H          0.11729300000000001           
         H3        1.0000    0.29630   0.53160   0.13150   Biso      1.000     H          0.105117  
         H4        1.0000    0.70370   0.46840   0.86850   Biso      1.000     H          0.105117  
         H5        1.0000    0.81050   0.91370   0.64970   Biso      1.000     H          0.11729300000000001           
         H6        1.0000    0.34940   0.57230   0.47320   Biso      1.000     H          0.114718  
         N1        1.0000    0.92180   0.11300   0.42450   Biso      1.000     N          -0.302917           
         N2        1.0000    0.56600   0.44310   0.10160   Biso      1.000     N          -0.322455           
         N3        1.0000    0.91040   0.42780   0.44180   Biso      1.000     N          -0.283358           
         N4        1.0000    0.08960   0.57220   0.55820   Biso      1.000     N          -0.283357           
         N5        1.0000    0.43400   0.55690   0.89840   Biso      1.000     N          -0.322456           
         N6        1.0000    0.07820   0.88700   0.57550   Biso      1.000     N          -0.302917           
         O1        1.0000    0.99810   0.67920   0.02080   Biso      1.000     O          -0.542115           
         O2        1.0000    0.00190   0.32080   0.97920   Biso      1.000     O          -0.542115           
         O3        1.0000    0.15420   0.35860   0.30080   Biso      1.000     O          -0.608558           
         O4        1.0000    0.93670   0.30180   0.14320   Biso      1.000     O          -0.669705           
         O5        1.0000    0.54660   0.22880   0.45280   Biso      1.000     O          -0.66966  
         O6        1.0000    0.49720   0.08870   0.61020   Biso      1.000     O          -0.550962           
         O7        1.0000    0.50280   0.91130   0.38980   Biso      1.000     O          -0.550962           
         O8        1.0000    0.56010   0.52390   0.67540   Biso      1.000     O          -0.605647           
         O9        1.0000    0.84580   0.64140   0.69920   Biso      1.000     O          -0.608558           
         O10       1.0000    0.06330   0.69820   0.85680   Biso      1.000     O          -0.669704           
         O11       1.0000    0.45340   0.77120   0.54720   Biso      1.000     O          -0.66966  
         O12       1.0000    0.43990   0.47610   0.32460   Biso      1.000     O          -0.605646           
         Pr1       1.0000    0.74872   0.33944   0.29122   Biso      1.000     Pr          1.931281  
         Pr2       1.0000    0.25128   0.66056   0.70878   Biso      1.000     Pr          1.931281 