
##########################################################################
#               Crystallographic Information Format file
#               Produced by PyCifRW module
#
#  This is a CIF file.  CIF has been adopted by the International
#  Union of Crystallography as the standard for data archiving and
#  transmission.
#
#  For information on this file format, follow the CIF links at
#  http://www.iucr.org
##########################################################################

data_image0

_cell_length_a                          23.6408
_cell_length_b                          16.3714
_cell_length_c                          6.587
_cell_angle_alpha                       90
_cell_angle_beta                        90
_cell_angle_gamma                       90
_symmetry_space_group_name_H-M          'P 1'
_symmetry_int_tables_number             1
loop_
  _symmetry_equiv_pos_as_xyz
         'x, y, z' 
loop_
  _atom_site_label
  _atom_site_occupancy
  _atom_site_fract_x
  _atom_site_fract_y
  _atom_site_fract_z
  _atom_site_thermal_displace_type
  _atom_site_B_iso_or_equiv
  _atom_site_type_symbol
  _atom_site_charge
         C1        1.0000    0.21681   0.38306   0.39140   Biso      1.000     C          -0.064624           
         C2        1.0000    0.34810   0.88480   0.38400   Biso      1.000     C          -0.12688  
         C3        1.0000    0.28101   0.99880   0.37850   Biso      1.000     C          0.117416  
         C4        1.0000    0.33732   0.97020   0.37410   Biso      1.000     C          0.058833  
         C5        1.0000    0.37988   0.02900   0.35130   Biso      1.000     C          -0.104524           
         C6        1.0000    0.35220   0.33230   0.92350   Biso      1.000     C          -0.115889           
         C7        1.0000    0.36660   0.10940   0.33880   Biso      1.000     C          -0.13827  
         C8        1.0000    0.30970   0.13140   0.35030   Biso      1.000     C          0.085139  
         C9        1.0000    0.54648   0.35250   0.42750   Biso      1.000     C          0.577284  
         C10       1.0000    0.36140   0.41800   0.91170   Biso      1.000     C          0.105276  
         C11       1.0000    0.44213   0.32740   0.45790   Biso      1.000     C          0.041823  
         C12       1.0000    0.48640   0.38150   0.41950   Biso      1.000     C          -0.067613           
         C13       1.0000    0.47157   0.45990   0.36940   Biso      1.000     C          -0.058528           
         C14       1.0000    0.41559   0.48200   0.36610   Biso      1.000     C          -0.169315           
         C15       1.0000    0.37392   0.42450   0.40420   Biso      1.000     C          0.200204  
         C16       1.0000    0.68050   0.19240   0.39670   Biso      1.000     C          0.618558  
         C17       1.0000    0.27483   0.37490   0.40120   Biso      1.000     C          -0.146925           
         C18       1.0000    0.31151   0.44120   0.39800   Biso      1.000     C          0.011051  
         C19       1.0000    0.32037   0.59850   0.38290   Biso      1.000     C          0.599684  
         C20       1.0000    0.28685   0.51969   0.38390   Biso      1.000     C          -0.047553           
         C21       1.0000    0.71681   0.11694   0.39140   Biso      1.000     C          -0.064627           
         C22       1.0000    0.22825   0.52810   0.37420   Biso      1.000     C          -0.129747           
         C23       1.0000    0.69304   0.03910   0.37730   Biso      1.000     C          -0.097869           
         C24       1.0000    0.19304   0.46090   0.37730   Biso      1.000     C          -0.097871           
         C25       1.0000    0.01360   0.88150   0.91950   Biso      1.000     C          -0.067601           
         C26       1.0000    0.18050   0.30760   0.39670   Biso      1.000     C          0.618564  
         C27       1.0000    0.29770   0.30380   0.91770   Biso      1.000     C          -0.08827  
         C28       1.0000    0.72825   0.97190   0.37420   Biso      1.000     C          -0.129742           
         C29       1.0000    0.30570   0.83110   0.40030   Biso      1.000     C          -0.116127           
         C30       1.0000    0.24710   0.85740   0.40210   Biso      1.000     C          0.067318  
         C31       1.0000    0.08441   0.98200   0.86610   Biso      1.000     C          -0.169334           
         C32       1.0000    0.12608   0.92450   0.90420   Biso      1.000     C          0.200206  
         C33       1.0000    0.05787   0.82740   0.95790   Biso      1.000     C          0.041814  
         C34       1.0000    0.22517   0.87490   0.90120   Biso      1.000     C          -0.146918           
         C35       1.0000    0.18849   0.94120   0.89800   Biso      1.000     C          0.011053  
         C36       1.0000    0.17963   0.09850   0.88290   Biso      1.000     C          0.599694  
         C37       1.0000    0.21315   0.01969   0.88390   Biso      1.000     C          -0.047548           
         C38       1.0000    0.27175   0.02810   0.87420   Biso      1.000     C          -0.129749           
         C39       1.0000    0.95352   0.85250   0.92750   Biso      1.000     C          0.577276  
         C40       1.0000    0.30696   0.96090   0.87730   Biso      1.000     C          -0.097869           
         C41       1.0000    0.28319   0.88306   0.89140   Biso      1.000     C          -0.064623           
         C42       1.0000    0.31950   0.80760   0.89670   Biso      1.000     C          0.618583  
         C43       1.0000    0.19030   0.63140   0.85030   Biso      1.000     C          0.085178  
         C44       1.0000    0.13340   0.60940   0.83880   Biso      1.000     C          -0.138257           
         C45       1.0000    0.12012   0.52900   0.85130   Biso      1.000     C          -0.104486           
         C46       1.0000    0.16268   0.47020   0.87410   Biso      1.000     C          0.058824  
         C47       1.0000    0.21899   0.49880   0.87850   Biso      1.000     C          0.117432  
         C48       1.0000    0.15190   0.38480   0.88400   Biso      1.000     C          -0.126882           
         C49       1.0000    0.19430   0.33110   0.90030   Biso      1.000     C          -0.116133           
         C50       1.0000    0.63860   0.58200   0.41170   Biso      1.000     C          0.105195  
         C51       1.0000    0.13860   0.91800   0.41170   Biso      1.000     C          0.105227  
         C52       1.0000    0.14780   0.83230   0.42350   Biso      1.000     C          -0.115885           
         C53       1.0000    0.25290   0.35740   0.90210   Biso      1.000     C          0.067313  
         C54       1.0000    0.20230   0.80380   0.41770   Biso      1.000     C          -0.088315           
         C55       1.0000    0.23485   0.94060   0.39450   Biso      1.000     C          0.107651  
         C56       1.0000    0.26515   0.44060   0.89450   Biso      1.000     C          0.10768   
         C57       1.0000    0.78685   0.98031   0.38390   Biso      1.000     C          -0.047545           
         C58       1.0000    0.02843   0.95990   0.86940   Biso      1.000     C          -0.058543           
         C59       1.0000    0.81151   0.05880   0.39800   Biso      1.000     C          0.011054  
         C60       1.0000    0.45352   0.64750   0.92750   Biso      1.000     C          0.577283  
         C61       1.0000    0.86660   0.39060   0.33880   Biso      1.000     C          -0.138284           
         C62       1.0000    0.82037   0.90150   0.38290   Biso      1.000     C          0.599692  
         C63       1.0000    0.51360   0.61850   0.91950   Biso      1.000     C          -0.067605           
         C64       1.0000    0.52843   0.54010   0.86940   Biso      1.000     C          -0.058559           
         C65       1.0000    0.87988   0.47100   0.35130   Biso      1.000     C          -0.104543           
         C66       1.0000    0.58441   0.51800   0.86610   Biso      1.000     C          -0.169338           
         C67       1.0000    0.62608   0.57550   0.90420   Biso      1.000     C          0.200207  
         C68       1.0000    0.72517   0.62510   0.90120   Biso      1.000     C          -0.146915           
         C69       1.0000    0.68849   0.55880   0.89800   Biso      1.000     C          0.011055  
         C70       1.0000    0.67963   0.40150   0.88290   Biso      1.000     C          0.599701  
         C71       1.0000    0.69030   0.86860   0.85030   Biso      1.000     C          0.085159  
         C72       1.0000    0.71315   0.48031   0.88390   Biso      1.000     C          -0.047539           
         C73       1.0000    0.77175   0.47190   0.87420   Biso      1.000     C          -0.129744           
         C74       1.0000    0.78101   0.50120   0.37850   Biso      1.000     C          0.117404  
         C75       1.0000    0.80696   0.53910   0.87730   Biso      1.000     C          -0.097867           
         C76       1.0000    0.78319   0.61694   0.89140   Biso      1.000     C          -0.064625           
         C77       1.0000    0.81950   0.69240   0.89670   Biso      1.000     C          0.618575  
         C78       1.0000    0.84810   0.61520   0.38400   Biso      1.000     C          -0.126888           
         C79       1.0000    0.80570   0.66890   0.40030   Biso      1.000     C          -0.116131           
         C80       1.0000    0.74710   0.64260   0.40210   Biso      1.000     C          0.067326  
         C81       1.0000    0.73485   0.55940   0.39450   Biso      1.000     C          0.10763   
         C82       1.0000    0.70230   0.69620   0.41770   Biso      1.000     C          -0.088356           
         C83       1.0000    0.64780   0.66770   0.42350   Biso      1.000     C          -0.115875           
         C84       1.0000    0.83732   0.52980   0.37410   Biso      1.000     C          0.058839  
         C85       1.0000    0.63340   0.89060   0.83880   Biso      1.000     C          -0.138261           
         C86       1.0000    0.55787   0.67260   0.95790   Biso      1.000     C          0.041813  
         C87       1.0000    0.62012   0.97100   0.85130   Biso      1.000     C          -0.104514           
         C88       1.0000    0.77483   0.12510   0.40120   Biso      1.000     C          -0.14692  
         C89       1.0000    0.87392   0.07550   0.40420   Biso      1.000     C          0.200207  
         C90       1.0000    0.91559   0.01800   0.36610   Biso      1.000     C          -0.169326           
         C91       1.0000    0.97157   0.04010   0.36940   Biso      1.000     C          -0.058541           
         C92       1.0000    0.86140   0.08200   0.91170   Biso      1.000     C          0.105235  
         C93       1.0000    0.85220   0.16770   0.92350   Biso      1.000     C          -0.115883           
         C94       1.0000    0.80970   0.36860   0.35030   Biso      1.000     C          0.085124  
         C95       1.0000    0.79770   0.19620   0.91770   Biso      1.000     C          -0.088307           
         C96       1.0000    0.76515   0.05940   0.89450   Biso      1.000     C          0.107647  
         C97       1.0000    0.75290   0.14260   0.90210   Biso      1.000     C          0.067325  
         C98       1.0000    0.94213   0.17260   0.45790   Biso      1.000     C          0.041822  
         C99       1.0000    0.98640   0.11850   0.41950   Biso      1.000     C          -0.067607           
         C100      1.0000    0.04648   0.14750   0.42750   Biso      1.000     C          0.577285  
         C101      1.0000    0.69430   0.16890   0.90030   Biso      1.000     C          -0.116168           
         C102      1.0000    0.65190   0.11520   0.88400   Biso      1.000     C          -0.126859           
         C103      1.0000    0.71899   0.00120   0.87850   Biso      1.000     C          0.117425  
         C104      1.0000    0.66268   0.02980   0.87410   Biso      1.000     C          0.058826  
         H1        1.0000    0.61750   0.70360   0.43490   Biso      1.000     H          0.126704  
         H2        1.0000    0.71260   0.91990   0.36550   Biso      1.000     H          0.114992  
         H3        1.0000    0.70920   0.75200   0.42440   Biso      1.000     H          0.119457  
         H4        1.0000    0.29080   0.24800   0.92440   Biso      1.000     H          0.119465  
         H5        1.0000    0.65400   0.03270   0.37010   Biso      1.000     H          0.117097  
         H6        1.0000    0.79010   0.17740   0.41040   Biso      1.000     H          0.104632  
         H7        1.0000    0.81400   0.72430   0.41080   Biso      1.000     H          0.13176   
         H8        1.0000    0.04860   0.77380   0.99000   Biso      1.000     H          0.087241  
         H9        1.0000    0.80070   0.31330   0.34520   Biso      1.000     H          0.090099  
         H10       1.0000    0.88520   0.63390   0.37890   Biso      1.000     H          0.133897  
         H11       1.0000    0.38250   0.29640   0.93490   Biso      1.000     H          0.126704  
         H12       1.0000    0.18600   0.27570   0.91080   Biso      1.000     H          0.131762  
         H13       1.0000    0.60940   0.22070   0.41140   Biso      1.000     H          0.416965  
         H14       1.0000    0.19930   0.68670   0.84520   Biso      1.000     H          0.090104  
         H15       1.0000    0.99940   0.00200   0.33770   Biso      1.000     H          0.115131  
         H16       1.0000    0.10540   0.64870   0.82300   Biso      1.000     H          0.130089  
         H17       1.0000    0.08250   0.51280   0.84470   Biso      1.000     H          0.122987  
         H18       1.0000    0.89460   0.35130   0.32300   Biso      1.000     H          0.130082  
         H19       1.0000    0.95140   0.22620   0.49000   Biso      1.000     H          0.087244  
         H20       1.0000    0.11480   0.36610   0.87890   Biso      1.000     H          0.133901  
         H21       1.0000    0.39830   0.43780   0.91490   Biso      1.000     H          0.098507  
         H22       1.0000    0.91750   0.48720   0.34470   Biso      1.000     H          0.122974  
         H23       1.0000    0.90560   0.96420   0.33820   Biso      1.000     H          0.132182  
         H24       1.0000    0.10170   0.93780   0.41490   Biso      1.000     H          0.098512  
         H25       1.0000    0.60170   0.56220   0.41490   Biso      1.000     H          0.098514  
         H26       1.0000    0.09440   0.03580   0.83820   Biso      1.000     H          0.132179  
         H27       1.0000    0.29010   0.32260   0.41040   Biso      1.000     H          0.104632  
         H28       1.0000    0.21260   0.58010   0.36550   Biso      1.000     H          0.11499   
         H29       1.0000    0.00060   0.99800   0.83770   Biso      1.000     H          0.11513   
         H30       1.0000    0.10940   0.27930   0.41140   Biso      1.000     H          0.416966  
         H31       1.0000    0.89830   0.06220   0.91490   Biso      1.000     H          0.098509  
         H32       1.0000    0.88250   0.20360   0.93490   Biso      1.000     H          0.126704  
         H33       1.0000    0.79080   0.25200   0.92440   Biso      1.000     H          0.119463  
         H34       1.0000    0.68600   0.22430   0.91080   Biso      1.000     H          0.131764  
         H35       1.0000    0.61480   0.13390   0.87890   Biso      1.000     H          0.133895  
         H36       1.0000    0.58250   0.98720   0.84470   Biso      1.000     H          0.12298   
         H37       1.0000    0.60540   0.85130   0.82300   Biso      1.000     H          0.130088  
         H38       1.0000    0.69930   0.81330   0.84520   Biso      1.000     H          0.090105  
         H39       1.0000    0.54860   0.72620   0.99000   Biso      1.000     H          0.08724   
         H40       1.0000    0.50060   0.50200   0.83770   Biso      1.000     H          0.115124  
         H41       1.0000    0.59440   0.46420   0.83820   Biso      1.000     H          0.132177  
         H42       1.0000    0.70990   0.67740   0.91040   Biso      1.000     H          0.104629  
         H43       1.0000    0.78740   0.41990   0.86550   Biso      1.000     H          0.114988  
         H44       1.0000    0.84600   0.53270   0.87010   Biso      1.000     H          0.117095  
         H45       1.0000    0.89060   0.72070   0.91140   Biso      1.000     H          0.416964  
         H46       1.0000    0.40560   0.53580   0.33820   Biso      1.000     H          0.132184  
         H47       1.0000    0.49940   0.49800   0.33770   Biso      1.000     H          0.115137  
         H48       1.0000    0.15400   0.46730   0.37010   Biso      1.000     H          0.117099  
         H49       1.0000    0.30070   0.18670   0.34520   Biso      1.000     H          0.090098  
         H50       1.0000    0.20990   0.82260   0.91040   Biso      1.000     H          0.104629  
         H51       1.0000    0.28740   0.08010   0.86550   Biso      1.000     H          0.114986  
         H52       1.0000    0.34600   0.96730   0.87010   Biso      1.000     H          0.117097  
         H53       1.0000    0.39060   0.77930   0.91140   Biso      1.000     H          0.416965  
         H54       1.0000    0.11750   0.79640   0.43490   Biso      1.000     H          0.126704  
         H55       1.0000    0.39460   0.14870   0.32300   Biso      1.000     H          0.130082  
         H56       1.0000    0.45140   0.27380   0.49000   Biso      1.000     H          0.087244  
         H57       1.0000    0.20920   0.74800   0.42440   Biso      1.000     H          0.119458  
         H58       1.0000    0.31400   0.77570   0.41080   Biso      1.000     H          0.13176   
         H59       1.0000    0.38520   0.86610   0.37890   Biso      1.000     H          0.133902  
         H60       1.0000    0.41750   0.01280   0.34470   Biso      1.000     H          0.122981  
         Mn1       1.0000    0.32556   0.61070   0.88490   Biso      1.000     Mn          0.760819  
         Mn2       1.0000    0.17444   0.11070   0.38490   Biso      1.000     Mn          0.760634  
         Mn3       1.0000    0.82556   0.88930   0.88490   Biso      1.000     Mn          0.760698  
         Mn4       1.0000    0.67444   0.38930   0.38490   Biso      1.000     Mn          0.760521  
         N1        1.0000    0.68130   0.52928   0.39610   Biso      1.000     N          -0.243147           
         N2        1.0000    0.76761   0.42159   0.36800   Biso      1.000     N          -0.243763           
         N3        1.0000    0.88730   0.15290   0.45190   Biso      1.000     N          -0.313061           
         N4        1.0000    0.31870   0.47072   0.89610   Biso      1.000     N          -0.243266           
         N5        1.0000    0.23239   0.57841   0.86800   Biso      1.000     N          -0.243833           
         N6        1.0000    0.11270   0.84710   0.95190   Biso      1.000     N          -0.313068           
         N7        1.0000    0.26761   0.07841   0.36800   Biso      1.000     N          -0.243793           
         N8        1.0000    0.38730   0.34710   0.45190   Biso      1.000     N          -0.313064           
         N9        1.0000    0.81870   0.02928   0.89610   Biso      1.000     N          -0.243216           
         N10       1.0000    0.73239   0.92159   0.86800   Biso      1.000     N          -0.243803           
         N11       1.0000    0.61270   0.65290   0.95190   Biso      1.000     N          -0.313066           
         N12       1.0000    0.18130   0.97072   0.39610   Biso      1.000     N          -0.243194           
         O1        1.0000    0.94590   0.77945   0.98730   Biso      1.000     O          -0.592364           
         O2        1.0000    0.66580   0.37150   0.05080   Biso      1.000     O          -0.530669           
         O3        1.0000    0.41514   0.59869   0.87730   Biso      1.000     O          -0.507355           
         O4        1.0000    0.44590   0.72055   0.98730   Biso      1.000     O          -0.59239  
         O5        1.0000    0.66972   0.36910   0.71540   Biso      1.000     O          -0.528065           
         O6        1.0000    0.87305   0.67748   0.91000   Biso      1.000     O          -0.505814           
         O7        1.0000    0.79903   0.76030   0.88590   Biso      1.000     O          -0.456275           
         O8        1.0000    0.91514   0.90131   0.87730   Biso      1.000     O          -0.507265           
         O9        1.0000    0.08486   0.09869   0.37730   Biso      1.000     O          -0.507232           
         O10       1.0000    0.16972   0.13090   0.71540   Biso      1.000     O          -0.528041           
         O11       1.0000    0.05410   0.22055   0.48730   Biso      1.000     O          -0.592355           
         O12       1.0000    0.29903   0.73970   0.88590   Biso      1.000     O          -0.456348           
         O13       1.0000    0.70097   0.26030   0.38590   Biso      1.000     O          -0.456175           
         O14       1.0000    0.62695   0.17748   0.41000   Biso      1.000     O          -0.505804           
         O15       1.0000    0.83028   0.86910   0.21540   Biso      1.000     O          -0.528035           
         O16       1.0000    0.20097   0.23970   0.38590   Biso      1.000     O          -0.456244           
         O17       1.0000    0.12695   0.32252   0.41000   Biso      1.000     O          -0.505808           
         O18       1.0000    0.83420   0.87150   0.55080   Biso      1.000     O          -0.530662           
         O19       1.0000    0.33028   0.63090   0.21540   Biso      1.000     O          -0.528012           
         O20       1.0000    0.33420   0.62850   0.55080   Biso      1.000     O          -0.530659           
         O21       1.0000    0.58486   0.40131   0.37730   Biso      1.000     O          -0.507148           
         O22       1.0000    0.55410   0.27945   0.48730   Biso      1.000     O          -0.592334           
         O23       1.0000    0.16580   0.12850   0.05080   Biso      1.000     O          -0.530667           
         O24       1.0000    0.37305   0.82252   0.91000   Biso      1.000     O          -0.505818 