
##########################################################################
#               Crystallographic Information Format file
#               Produced by PyCifRW module
#
#  This is a CIF file.  CIF has been adopted by the International
#  Union of Crystallography as the standard for data archiving and
#  transmission.
#
#  For information on this file format, follow the CIF links at
#  http://www.iucr.org
##########################################################################

data_image0

_cell_length_a                          7.5203
_cell_length_b                          13.552
_cell_length_c                          15.623
_cell_angle_alpha                       90
_cell_angle_beta                        90
_cell_angle_gamma                       90
_symmetry_space_group_name_H-M          'P 1'
_symmetry_int_tables_number             1
loop_
  _symmetry_equiv_pos_as_xyz
         'x, y, z' 
loop_
  _atom_site_label
  _atom_site_occupancy
  _atom_site_fract_x
  _atom_site_fract_y
  _atom_site_fract_z
  _atom_site_thermal_displace_type
  _atom_site_B_iso_or_equiv
  _atom_site_type_symbol
  _atom_site_charge
         C1        1.0000    0.06190   0.98969   0.32924   Biso      1.000     C          0.434132  
         C2        1.0000    0.43810   0.48969   0.32924   Biso      1.000     C          0.434132  
         C3        1.0000    0.36870   0.39201   0.32688   Biso      1.000     C          -0.266553           
         C4        1.0000    0.06190   0.98969   0.17076   Biso      1.000     C          0.434132  
         C5        1.0000    0.13130   0.89201   0.17312   Biso      1.000     C          -0.266553           
         C6        1.0000    0.56190   0.51031   0.82924   Biso      1.000     C          0.434132  
         C7        1.0000    0.63130   0.60799   0.82688   Biso      1.000     C          -0.266553           
         C8        1.0000    0.86870   0.10799   0.67312   Biso      1.000     C          -0.266554           
         C9        1.0000    0.36870   0.39201   0.17312   Biso      1.000     C          -0.266554           
         C10       1.0000    0.43810   0.48969   0.17076   Biso      1.000     C          0.434133  
         C11       1.0000    0.86870   0.10799   0.82688   Biso      1.000     C          -0.266554           
         C12       1.0000    0.93810   0.01031   0.82924   Biso      1.000     C          0.434133  
         C13       1.0000    0.93810   0.01031   0.67076   Biso      1.000     C          0.434133  
         C14       1.0000    0.56190   0.51031   0.67076   Biso      1.000     C          0.434132  
         C15       1.0000    0.13130   0.89201   0.32688   Biso      1.000     C          -0.266553           
         C16       1.0000    0.66570   0.65489   0.75000   Biso      1.000     C          -0.064681           
         C17       1.0000    0.96970   0.96440   0.75000   Biso      1.000     C          -0.407132           
         C18       1.0000    0.83430   0.15489   0.75000   Biso      1.000     C          -0.064676           
         C19       1.0000    0.46970   0.53560   0.25000   Biso      1.000     C          -0.407132           
         C20       1.0000    0.33430   0.34511   0.25000   Biso      1.000     C          -0.064676           
         C21       1.0000    0.03030   0.03560   0.25000   Biso      1.000     C          -0.407132           
         C22       1.0000    0.16570   0.84511   0.25000   Biso      1.000     C          -0.064676           
         C23       1.0000    0.63130   0.60799   0.67312   Biso      1.000     C          -0.266549           
         C24       1.0000    0.53030   0.46440   0.75000   Biso      1.000     C          -0.407132           
         H1        1.0000    0.48620   0.40030   0.75000   Biso      1.000     H          0.137001  
         H2        1.0000    0.21200   0.78150   0.25000   Biso      1.000     H          0.122693  
         H3        1.0000    0.98620   0.09970   0.25000   Biso      1.000     H          0.137002  
         H4        1.0000    0.01380   0.90030   0.75000   Biso      1.000     H          0.137002  
         H5        1.0000    0.51380   0.59970   0.25000   Biso      1.000     H          0.137001  
         H6        1.0000    0.78800   0.21850   0.75000   Biso      1.000     H          0.122693  
         H7        1.0000    0.28800   0.28150   0.25000   Biso      1.000     H          0.122693  
         H8        1.0000    0.71200   0.71850   0.75000   Biso      1.000     H          0.122693  
         H9        1.0000    0.53180   0.91360   0.43540   Biso      1.000     H          0.46568   
         H10       1.0000    0.16220   0.52190   0.55170   Biso      1.000     H          0.381325  
         H11       1.0000    0.03180   0.58640   0.56460   Biso      1.000     H          0.46568   
         H12       1.0000    0.33780   0.02190   0.94830   Biso      1.000     H          0.381325  
         H13       1.0000    0.46820   0.08640   0.93540   Biso      1.000     H          0.46568   
         H14       1.0000    0.83780   0.47810   0.05170   Biso      1.000     H          0.381325  
         H15       1.0000    0.96820   0.41360   0.06460   Biso      1.000     H          0.46568   
         H16       1.0000    0.46820   0.08640   0.56460   Biso      1.000     H          0.46568   
         H17       1.0000    0.83780   0.47810   0.44830   Biso      1.000     H          0.381325  
         H18       1.0000    0.96820   0.41360   0.43540   Biso      1.000     H          0.46568   
         H19       1.0000    0.66220   0.97810   0.05170   Biso      1.000     H          0.381324  
         H20       1.0000    0.53180   0.91360   0.06460   Biso      1.000     H          0.46568   
         H21       1.0000    0.16220   0.52190   0.94830   Biso      1.000     H          0.381325  
         H22       1.0000    0.03180   0.58640   0.93540   Biso      1.000     H          0.46568   
         H23       1.0000    0.66220   0.97810   0.44830   Biso      1.000     H          0.381325  
         H24       1.0000    0.33780   0.02190   0.55170   Biso      1.000     H          0.381324  
         Li1       1.0000    0.47790   0.67550   0.08893   Biso      1.000     Li          0.859221  
         Li2       1.0000    0.97790   0.82450   0.58893   Biso      1.000     Li          0.859221  
         Li3       1.0000    0.83720   0.98180   0.48290   Biso      1.000     Li          0.827425  
         Li4       1.0000    0.33720   0.51820   0.98290   Biso      1.000     Li          0.827425  
         Li5       1.0000    0.97790   0.82450   0.91107   Biso      1.000     Li          0.859221  
         Li6       1.0000    0.52210   0.32450   0.58893   Biso      1.000     Li          0.859221  
         Li7       1.0000    0.66280   0.48180   0.48290   Biso      1.000     Li          0.827425  
         Li8       1.0000    0.02210   0.17550   0.41107   Biso      1.000     Li          0.859221  
         Li9       1.0000    0.16280   0.01820   0.51710   Biso      1.000     Li          0.827425  
         Li10      1.0000    0.83720   0.98180   0.01710   Biso      1.000     Li          0.827427  
         Li11      1.0000    0.66280   0.48180   0.01710   Biso      1.000     Li          0.827427  
         Li12      1.0000    0.02210   0.17550   0.08893   Biso      1.000     Li          0.859221  
         Li13      1.0000    0.16280   0.01820   0.98290   Biso      1.000     Li          0.827427  
         Li14      1.0000    0.47790   0.67550   0.41107   Biso      1.000     Li          0.859222  
         Li15      1.0000    0.33720   0.51820   0.51710   Biso      1.000     Li          0.827426  
         Li16      1.0000    0.52210   0.32450   0.91107   Biso      1.000     Li          0.859221  
         O1        1.0000    0.36630   0.07169   0.57818   Biso      1.000     O          -0.864014           
         O2        1.0000    0.00428   0.18170   0.96436   Biso      1.000     O          -0.724305           
         O3        1.0000    0.71291   0.11052   0.52440   Biso      1.000     O          -0.725957           
         O4        1.0000    0.97165   0.96624   0.59667   Biso      1.000     O          -0.880491           
         O5        1.0000    0.50428   0.31830   0.03564   Biso      1.000     O          -0.724305           
         O6        1.0000    0.25464   0.23446   0.10070   Biso      1.000     O          -0.682006           
         O7        1.0000    0.86630   0.42831   0.07818   Biso      1.000     O          -0.864014           
         O8        1.0000    0.21291   0.38948   0.02440   Biso      1.000     O          -0.725957           
         O9        1.0000    0.47165   0.53376   0.09667   Biso      1.000     O          -0.880492           
         O10       1.0000    0.75464   0.26554   0.89930   Biso      1.000     O          -0.682005           
         O11       1.0000    0.78709   0.61052   0.52440   Biso      1.000     O          -0.725957           
         O12       1.0000    0.71291   0.11052   0.97560   Biso      1.000     O          -0.725958           
         O13       1.0000    0.97165   0.96624   0.90333   Biso      1.000     O          -0.880491           
         O14       1.0000    0.49572   0.68170   0.53564   Biso      1.000     O          -0.724306           
         O15       1.0000    0.74536   0.76554   0.60070   Biso      1.000     O          -0.682005           
         O16       1.0000    0.13370   0.57169   0.57818   Biso      1.000     O          -0.864014           
         O17       1.0000    0.75464   0.26554   0.60070   Biso      1.000     O          -0.682005           
         O18       1.0000    0.52835   0.46624   0.59667   Biso      1.000     O          -0.880491           
         O19       1.0000    0.99572   0.81830   0.46436   Biso      1.000     O          -0.724305           
         O20       1.0000    0.24536   0.73446   0.39930   Biso      1.000     O          -0.682006           
         O21       1.0000    0.63370   0.92831   0.42182   Biso      1.000     O          -0.864014           
         O22       1.0000    0.36630   0.07169   0.92182   Biso      1.000     O          -0.864014           
         O23       1.0000    0.00428   0.18170   0.53564   Biso      1.000     O          -0.724305           
         O24       1.0000    0.28709   0.88948   0.02440   Biso      1.000     O          -0.725958           
         O25       1.0000    0.21291   0.38948   0.47560   Biso      1.000     O          -0.725958           
         O26       1.0000    0.28709   0.88948   0.47560   Biso      1.000     O          -0.725957           
         O27       1.0000    0.49572   0.68170   0.96436   Biso      1.000     O          -0.724306           
         O28       1.0000    0.47165   0.53376   0.40333   Biso      1.000     O          -0.880491           
         O29       1.0000    0.13370   0.57169   0.92182   Biso      1.000     O          -0.864014           
         O30       1.0000    0.78709   0.61052   0.97560   Biso      1.000     O          -0.725958           
         O31       1.0000    0.52835   0.46624   0.90333   Biso      1.000     O          -0.880491           
         O32       1.0000    0.74536   0.76554   0.89930   Biso      1.000     O          -0.682006           
         O33       1.0000    0.24536   0.73446   0.10070   Biso      1.000     O          -0.682005           
         O34       1.0000    0.63370   0.92831   0.07818   Biso      1.000     O          -0.864014           
         O35       1.0000    0.02835   0.03376   0.09667   Biso      1.000     O          -0.880492           
         O36       1.0000    0.50428   0.31830   0.46436   Biso      1.000     O          -0.724306           
         O37       1.0000    0.25464   0.23446   0.39930   Biso      1.000     O          -0.682006           
         O38       1.0000    0.86630   0.42831   0.42182   Biso      1.000     O          -0.864014           
         O39       1.0000    0.99572   0.81830   0.03564   Biso      1.000     O          -0.724305           
         O40       1.0000    0.02835   0.03376   0.40333   Biso      1.000     O          -0.880491           
         S1        1.0000    0.16800   0.82970   0.42237   Biso      1.000     S          1.2816    
         S2        1.0000    0.66800   0.67030   0.57763   Biso      1.000     S          1.281599  
         S3        1.0000    0.83200   0.17030   0.92237   Biso      1.000     S          1.2816    
         S4        1.0000    0.33200   0.32970   0.07763   Biso      1.000     S          1.2816    
         S5        1.0000    0.83200   0.17030   0.57763   Biso      1.000     S          1.2816    
         S6        1.0000    0.33200   0.32970   0.42237   Biso      1.000     S          1.2816    
         S7        1.0000    0.16800   0.82970   0.07763   Biso      1.000     S          1.2816    
         S8        1.0000    0.66800   0.67030   0.92237   Biso      1.000     S          1.2816 