
##########################################################################
#               Crystallographic Information Format file
#               Produced by PyCifRW module
#
#  This is a CIF file.  CIF has been adopted by the International
#  Union of Crystallography as the standard for data archiving and
#  transmission.
#
#  For information on this file format, follow the CIF links at
#  http://www.iucr.org
##########################################################################

data_image0

_cell_length_a                          7.83
_cell_length_b                          10.912
_cell_length_c                          12.498
_cell_angle_alpha                       106.544
_cell_angle_beta                        96.596
_cell_angle_gamma                       99.562
_symmetry_space_group_name_H-M          'P 1'
_symmetry_int_tables_number             1
loop_
  _symmetry_equiv_pos_as_xyz
         'x, y, z' 
loop_
  _atom_site_label
  _atom_site_occupancy
  _atom_site_fract_x
  _atom_site_fract_y
  _atom_site_fract_z
  _atom_site_thermal_displace_type
  _atom_site_B_iso_or_equiv
  _atom_site_type_symbol
  _atom_site_charge
         C1        1.0000    0.13520   0.63430   0.78940   Biso      1.000     C          0.572555  
         C2        1.0000    0.17140   0.92090   0.11450   Biso      1.000     C          0.246623  
         C3        1.0000    0.32190   0.88750   0.07190   Biso      1.000     C          -0.049845           
         C4        1.0000    0.30700   0.79450   0.96740   Biso      1.000     C          -0.131406           
         C5        1.0000    0.14510   0.73400   0.90180   Biso      1.000     C          -0.021418           
         C6        1.0000    0.99610   0.76880   0.94240   Biso      1.000     C          -0.047296           
         C7        1.0000    0.00850   0.86090   0.04750   Biso      1.000     C          -0.21739  
         C8        1.0000    0.11400   0.86940   0.59680   Biso      1.000     C          -0.006339           
         C9        1.0000    0.19770   0.98530   0.58170   Biso      1.000     C          -0.130958           
         C10       1.0000    0.14910   0.10210   0.63130   Biso      1.000     C          0.00433   
         C11       1.0000    0.77200   0.77300   0.39110   Biso      1.000     C          0.6097640000000001  
         C12       1.0000    0.01890   0.10520   0.69920   Biso      1.000     C          -0.206013           
         C13       1.0000    0.98700   0.87270   0.66630   Biso      1.000     C          -0.207091           
         C14       1.0000    0.16310   0.74290   0.53990   Biso      1.000     C          0.633235  
         C15       1.0000    0.22800   0.22700   0.60890   Biso      1.000     C          0.606549  
         C16       1.0000    0.82860   0.07910   0.88550   Biso      1.000     C          0.24737199999999998           
         C17       1.0000    0.67810   0.11250   0.92810   Biso      1.000     C          -0.04927  
         C18       1.0000    0.69300   0.20550   0.03260   Biso      1.000     C          -0.131116           
         C19       1.0000    0.85490   0.26600   0.09820   Biso      1.000     C          -0.02198  
         C20       1.0000    0.00390   0.23120   0.05760   Biso      1.000     C          -0.047035           
         C21       1.0000    0.99150   0.13910   0.95250   Biso      1.000     C          -0.216696           
         C22       1.0000    0.94430   0.99120   0.71790   Biso      1.000     C          0.279976  
         C23       1.0000    0.83690   0.25710   0.46010   Biso      1.000     C          0.626256  
         C24       1.0000    0.86480   0.36570   0.21060   Biso      1.000     C          0.5734090000000001  
         C25       1.0000    0.01300   0.12730   0.33370   Biso      1.000     C          -0.20603200000000002          
         C26       1.0000    0.05570   0.00880   0.28210   Biso      1.000     C          0.280385  
         C27       1.0000    0.98110   0.89480   0.30080   Biso      1.000     C          -0.206604           
         C28       1.0000    0.88600   0.13060   0.40320   Biso      1.000     C          -0.004682           
         C29       1.0000    0.85090   0.89790   0.36870   Biso      1.000     C          0.000953  
         C30       1.0000    0.80230   0.01470   0.41830   Biso      1.000     C          -0.130501           
         Co1       1.0000    0.51596   0.36557   0.52034   Biso      1.000     Co          0.904616  
         Co2       1.0000    0.48404   0.63443   0.47966   Biso      1.000     Co          0.993733  
         Co3       1.0000    0.13785   0.48150   0.59827   Biso      1.000     Co          1.064455  
         Co4       1.0000    0.86215   0.51850   0.40173   Biso      1.000     Co          1.072562  
         H1        1.0000    0.09290   0.11760   0.92700   Biso      1.000     H          0.14286600000000002           
         H2        1.0000    0.01660   0.81720   0.26870   Biso      1.000     H          0.152274  
         H3        1.0000    0.11410   0.27030   0.10170   Biso      1.000     H          0.126142  
         H4        1.0000    0.59210   0.22720   0.05880   Biso      1.000     H          0.140066  
         H5        1.0000    0.93160   0.79650   0.67800   Biso      1.000     H          0.138653  
         H6        1.0000    0.98340   0.18280   0.73130   Biso      1.000     H          0.152581  
         H7        1.0000    0.74100   0.57420   0.57580   Biso      1.000     H          0.39398299999999997           
         H8        1.0000    0.90710   0.88240   0.07300   Biso      1.000     H          0.142697  
         H9        1.0000    0.40790   0.77280   0.94120   Biso      1.000     H          0.140209  
         H10       1.0000    0.25900   0.42580   0.42420   Biso      1.000     H          0.394421  
         H11       1.0000    0.06840   0.20350   0.32200   Biso      1.000     H          0.138991  
         H12       1.0000    0.28630   0.98400   0.53810   Biso      1.000     H          0.138477  
         H13       1.0000    0.88590   0.72970   0.89830   Biso      1.000     H          0.12620599999999998           
         H14       1.0000    0.71370   0.01600   0.46190   Biso      1.000     H          0.13847   
         N1        1.0000    0.49990   0.05390   0.86520   Biso      1.000     N          0.562291  
         N2        1.0000    0.50010   0.94610   0.13480   Biso      1.000     N          0.562163  
         O1        1.0000    0.00950   0.43750   0.26580   Biso      1.000     O          -0.565904           
         O2        1.0000    0.93870   0.36360   0.46070   Biso      1.000     O          -0.655038           
         O3        1.0000    0.70210   0.25290   0.50280   Biso      1.000     O          -0.487436           
         O4        1.0000    0.06130   0.63640   0.53930   Biso      1.000     O          -0.658629           
         O5        1.0000    0.65310   0.77900   0.45010   Biso      1.000     O          -0.54509  
         O6        1.0000    0.83440   0.67430   0.34900   Biso      1.000     O          -0.55762  
         O7        1.0000    0.53160   0.05360   0.20280   Biso      1.000     O          -0.339419           
         O8        1.0000    0.61500   0.88850   0.11130   Biso      1.000     O          -0.35432199999999997          
         O9        1.0000    0.29790   0.74710   0.49720   Biso      1.000     O          -0.516821           
         O10       1.0000    0.80740   0.98780   0.78180   Biso      1.000     O          -0.21166  
         O11       1.0000    0.99050   0.56250   0.73420   Biso      1.000     O          -0.565049           
         O12       1.0000    0.19260   0.01220   0.21820   Biso      1.000     O          -0.21171900000000002          
         O13       1.0000    0.34690   0.22100   0.54990   Biso      1.000     O          -0.523721           
         O14       1.0000    0.67530   0.52700   0.49940   Biso      1.000     O          -0.862775           
         O15       1.0000    0.16560   0.32570   0.65100   Biso      1.000     O          -0.565966           
         O16       1.0000    0.46840   0.94640   0.79720   Biso      1.000     O          -0.339328           
         O17       1.0000    0.38500   0.11150   0.88870   Biso      1.000     O          -0.353864           
         O18       1.0000    0.72260   0.37740   0.24910   Biso      1.000     O          -0.550234           
         O19       1.0000    0.27740   0.62260   0.75090   Biso      1.000     O          -0.55152  
         O20       1.0000    0.32470   0.47300   0.50060   Biso      1.000     O          -0.859477 