
##########################################################################
#               Crystallographic Information Format file
#               Produced by PyCifRW module
#
#  This is a CIF file.  CIF has been adopted by the International
#  Union of Crystallography as the standard for data archiving and
#  transmission.
#
#  For information on this file format, follow the CIF links at
#  http://www.iucr.org
##########################################################################

data_image0

_cell_length_a                          7.4786
_cell_length_b                          9.832
_cell_length_c                          14.9333
_cell_angle_alpha                       90
_cell_angle_beta                        100.078
_cell_angle_gamma                       90
_symmetry_space_group_name_H-M          'P 1'
_symmetry_int_tables_number             1
loop_
  _symmetry_equiv_pos_as_xyz
         'x, y, z' 
loop_
  _atom_site_label
  _atom_site_occupancy
  _atom_site_fract_x
  _atom_site_fract_y
  _atom_site_fract_z
  _atom_site_thermal_displace_type
  _atom_site_B_iso_or_equiv
  _atom_site_type_symbol
  _atom_site_charge
         C1        1.0000    0.10620   0.77020   0.99540   Biso      1.000     C          0.656449  
         C2        1.0000    0.71490   0.58020   0.98200   Biso      1.000     C          -0.17638  
         C3        1.0000    0.72460   0.54700   0.07110   Biso      1.000     C          0.065084  
         C4        1.0000    0.68400   0.62340   0.15030   Biso      1.000     C          0.6336350000000001  
         C5        1.0000    0.39380   0.27020   0.50460   Biso      1.000     C          0.656449  
         C6        1.0000    0.31410   0.13220   0.50420   Biso      1.000     C          0.089655  
         C7        1.0000    0.27190   0.03730   0.43870   Biso      1.000     C          -0.183819           
         C8        1.0000    0.21490   0.91980   0.48200   Biso      1.000     C          -0.17638299999999998          
         C9        1.0000    0.77190   0.46270   0.93870   Biso      1.000     C          -0.183839           
         C10       1.0000    0.22460   0.95300   0.57110   Biso      1.000     C          0.065084  
         C11       1.0000    0.04170   0.53480   0.46160   Biso      1.000     C          0.5188189999999999  
         C12       1.0000    0.18590   0.63220   0.99580   Biso      1.000     C          0.089655  
         C13       1.0000    0.22810   0.53730   0.06130   Biso      1.000     C          -0.183819           
         C14       1.0000    0.28510   0.41980   0.01800   Biso      1.000     C          -0.17638299999999998          
         C15       1.0000    0.27540   0.45300   0.92890   Biso      1.000     C          0.065084  
         C16       1.0000    0.31600   0.37660   0.84970   Biso      1.000     C          0.633636  
         C17       1.0000    0.45830   0.03480   0.03840   Biso      1.000     C          0.5188189999999999  
         C18       1.0000    0.18400   0.87660   0.65030   Biso      1.000     C          0.633636  
         C19       1.0000    0.81410   0.36780   0.00420   Biso      1.000     C          0.089674  
         C20       1.0000    0.54170   0.96520   0.96160   Biso      1.000     C          0.5188189999999999  
         C21       1.0000    0.95830   0.46520   0.53840   Biso      1.000     C          0.5188189999999999  
         C22       1.0000    0.81600   0.12340   0.34970   Biso      1.000     C          0.633636  
         C23       1.0000    0.77540   0.04700   0.42890   Biso      1.000     C          0.065073  
         C24       1.0000    0.78510   0.08020   0.51800   Biso      1.000     C          -0.176368           
         C25       1.0000    0.72810   0.96270   0.56130   Biso      1.000     C          -0.183841           
         C26       1.0000    0.68590   0.86780   0.49580   Biso      1.000     C          0.089674  
         C27       1.0000    0.60620   0.72980   0.49540   Biso      1.000     C          0.6564479999999999  
         C28       1.0000    0.89380   0.22980   0.00460   Biso      1.000     C          0.656447  
         H1        1.0000    0.72140   0.95320   0.62260   Biso      1.000     H          0.150912  
         H2        1.0000    0.77860   0.45320   0.87740   Biso      1.000     H          0.150912  
         H3        1.0000    0.67840   0.66300   0.95470   Biso      1.000     H          0.15992699999999999           
         H4        1.0000    0.82160   0.16300   0.54530   Biso      1.000     H          0.15992699999999999           
         H5        1.0000    0.17840   0.83700   0.45470   Biso      1.000     H          0.159928  
         H6        1.0000    0.22140   0.54680   0.12260   Biso      1.000     H          0.15091   
         H7        1.0000    0.32160   0.33700   0.04530   Biso      1.000     H          0.159928  
         H8        1.0000    0.27860   0.04680   0.37740   Biso      1.000     H          0.150911  
         O1        1.0000    0.44000   0.95100   0.88590   Biso      1.000     O          -0.599575           
         O2        1.0000    0.20450   0.57170   0.48130   Biso      1.000     O          -0.618966           
         O3        1.0000    0.41910   0.33500   0.57840   Biso      1.000     O          -0.677798           
         O4        1.0000    0.43420   0.30940   0.43090   Biso      1.000     O          -0.712129           
         O5        1.0000    0.28350   0.08400   0.58590   Biso      1.000     O          -0.09976499999999999          
         O6        1.0000    0.16120   0.74900   0.64100   Biso      1.000     O          -0.6750430000000001           
         O7        1.0000    0.94000   0.54900   0.38590   Biso      1.000     O          -0.599575           
         O8        1.0000    0.29550   0.07170   0.01870   Biso      1.000     O          -0.618966           
         O9        1.0000    0.33880   0.24900   0.85900   Biso      1.000     O          -0.6750430000000001           
         O10       1.0000    0.21650   0.58400   0.91410   Biso      1.000     O          -0.09976499999999999          
         O11       1.0000    0.06580   0.80940   0.06910   Biso      1.000     O          -0.712129           
         O12       1.0000    0.67330   0.55900   0.22110   Biso      1.000     O          -0.697684           
         O13       1.0000    0.08090   0.83500   0.92160   Biso      1.000     O          -0.677798           
         O14       1.0000    0.17330   0.94100   0.72110   Biso      1.000     O          -0.697684           
         O15       1.0000    0.66120   0.75100   0.14100   Biso      1.000     O          -0.6750430000000001           
         O16       1.0000    0.56000   0.04900   0.11410   Biso      1.000     O          -0.599575           
         O17       1.0000    0.93420   0.19060   0.93090   Biso      1.000     O          -0.712128           
         O18       1.0000    0.91910   0.16500   0.07840   Biso      1.000     O          -0.677798           
         O19       1.0000    0.70450   0.92830   0.98130   Biso      1.000     O          -0.618966           
         O20       1.0000    0.06000   0.45100   0.61410   Biso      1.000     O          -0.599575           
         O21       1.0000    0.82670   0.05900   0.27890   Biso      1.000     O          -0.697684           
         O22       1.0000    0.83880   0.25100   0.35900   Biso      1.000     O          -0.6750430000000001           
         O23       1.0000    0.71650   0.91600   0.41410   Biso      1.000     O          -0.09976499999999999          
         O24       1.0000    0.56580   0.69060   0.56910   Biso      1.000     O          -0.712128           
         O25       1.0000    0.58090   0.66500   0.42160   Biso      1.000     O          -0.677798           
         O26       1.0000    0.79550   0.42830   0.51870   Biso      1.000     O          -0.618966           
         O27       1.0000    0.32670   0.44100   0.77890   Biso      1.000     O          -0.697684           
         O28       1.0000    0.78350   0.41600   0.08590   Biso      1.000     O          -0.099766           
         Pr1       1.0000    0.13139   0.05547   0.85634   Biso      1.000     Pr          2.16668   
         Pr2       1.0000    0.36861   0.55547   0.64366   Biso      1.000     Pr          2.16668   
         Pr3       1.0000    0.86861   0.94453   0.14366   Biso      1.000     Pr          2.16668   
         Pr4       1.0000    0.63139   0.44453   0.35634   Biso      1.000     Pr          2.16668 