
##########################################################################
#               Crystallographic Information Format file
#               Produced by PyCifRW module
#
#  This is a CIF file.  CIF has been adopted by the International
#  Union of Crystallography as the standard for data archiving and
#  transmission.
#
#  For information on this file format, follow the CIF links at
#  http://www.iucr.org
##########################################################################

data_image0

_cell_length_a                          9.9063
_cell_length_b                          9.9063
_cell_length_c                          13.3661
_cell_angle_alpha                       86.0709
_cell_angle_beta                        69.3023
_cell_angle_gamma                       115.51
_symmetry_space_group_name_H-M          'P 1'
_symmetry_int_tables_number             1
loop_
  _symmetry_equiv_pos_as_xyz
         'x, y, z' 
loop_
  _atom_site_label
  _atom_site_occupancy
  _atom_site_fract_x
  _atom_site_fract_y
  _atom_site_fract_z
  _atom_site_thermal_displace_type
  _atom_site_B_iso_or_equiv
  _atom_site_type_symbol
  _atom_site_charge
         C1        1.0000    0.32832   0.67244   0.26656   Biso      1.000     C          0.50169   
         C2        1.0000    0.33318   0.06617   0.58217   Biso      1.000     C          0.125934  
         C3        1.0000    0.85166   0.08465   0.08217   Biso      1.000     C          0.12853699999999998           
         C4        1.0000    0.69680   0.16151   0.35047   Biso      1.000     C          -0.17489200000000002          
         C5        1.0000    0.14834   0.91535   0.91783   Biso      1.000     C          0.128538  
         C6        1.0000    0.73560   0.08242   0.03656   Biso      1.000     C          0.561321  
         C7        1.0000    0.66682   0.93383   0.41783   Biso      1.000     C          0.125935  
         C8        1.0000    0.39843   0.00053   0.63004   Biso      1.000     C          -0.168982           
         C9        1.0000    0.43900   0.59488   0.23344   Biso      1.000     C          0.498964  
         C10       1.0000    0.92864   0.79812   0.88722   Biso      1.000     C          0.127648  
         C11       1.0000    0.77893   0.65864   0.89727   Biso      1.000     C          0.569283  
         C12       1.0000    0.81466   0.18414   0.38722   Biso      1.000     C          0.12831800000000002           
         C13       1.0000    0.56100   0.40512   0.76656   Biso      1.000     C          0.498957  
         C14       1.0000    0.94409   0.32380   0.39727   Biso      1.000     C          0.57235   
         C15       1.0000    0.01198   0.04727   0.14953   Biso      1.000     C          -0.174473           
         C16       1.0000    0.26440   0.91758   0.96344   Biso      1.000     C          0.5613100000000001  
         C17       1.0000    0.98802   0.95273   0.85047   Biso      1.000     C          -0.174463           
         C18       1.0000    0.30320   0.83849   0.64953   Biso      1.000     C          -0.17489200000000002          
         C19       1.0000    0.67168   0.32756   0.73344   Biso      1.000     C          0.501692  
         C20       1.0000    0.60157   0.99947   0.36996   Biso      1.000     C          -0.168985           
         C21       1.0000    0.18534   0.81586   0.61278   Biso      1.000     C          0.128315  
         C22       1.0000    0.22107   0.34136   0.10273   Biso      1.000     C          0.569276  
         C23       1.0000    0.13057   0.02847   0.86996   Biso      1.000     C          -0.169054           
         C24       1.0000    0.05591   0.67620   0.60273   Biso      1.000     C          0.5723520000000001  
         C25       1.0000    0.07136   0.20188   0.11278   Biso      1.000     C          0.127654  
         C26       1.0000    0.38102   0.22784   0.53656   Biso      1.000     C          0.561975  
         C27       1.0000    0.61898   0.77216   0.46344   Biso      1.000     C          0.561976  
         C28       1.0000    0.86943   0.97153   0.13004   Biso      1.000     C          -0.169053           
         Eu1       1.0000    0.23434   0.45990   0.49836   Biso      1.000     Eu          1.383996  
         Eu2       1.0000    0.76567   0.54010   0.50164   Biso      1.000     Eu          1.383992  
         Eu3       1.0000    0.54174   0.26730   0.99836   Biso      1.000     Eu          1.384857  
         Eu4       1.0000    0.45826   0.73269   0.00164   Biso      1.000     Eu          1.3848639999999999  
         H1        1.0000    0.31850   0.76080   0.68190   Biso      1.000     H          0.162634  
         H2        1.0000    0.94270   0.00040   0.81810   Biso      1.000     H          0.16328199999999998           
         H3        1.0000    0.50990   0.94680   0.35290   Biso      1.000     H          0.162469  
         H4        1.0000    0.05730   0.99960   0.18190   Biso      1.000     H          0.16328199999999998           
         H5        1.0000    0.68150   0.23920   0.31810   Biso      1.000     H          0.162635  
         H6        1.0000    0.20030   0.13720   0.85290   Biso      1.000     H          0.16104200000000002           
         H7        1.0000    0.49010   0.05320   0.64710   Biso      1.000     H          0.162468  
         H8        1.0000    0.79970   0.86280   0.14710   Biso      1.000     H          0.16104200000000002           
         O1        1.0000    0.33652   0.31984   0.10466   Biso      1.000     O          -0.5606949999999999           
         O2        1.0000    0.97335   0.22744   0.07211   Biso      1.000     O          -0.094484           
         O3        1.0000    0.46849   0.37098   0.86711   Biso      1.000     O          -0.47422600000000004          
         O4        1.0000    0.63153   0.95438   0.03625   Biso      1.000     O          -0.599705           
         O5        1.0000    0.71235   0.75072   0.49929   Biso      1.000     O          -0.548715           
         O6        1.0000    0.28765   0.24928   0.50071   Biso      1.000     O          -0.548712           
         O7        1.0000    0.73809   0.33560   0.63289   Biso      1.000     O          -0.474364           
         O8        1.0000    0.20045   0.95454   0.57211   Biso      1.000     O          -0.094743           
         O9        1.0000    0.31633   0.74016   0.18981   Biso      1.000     O          -0.44557299999999994          
         O10       1.0000    0.53151   0.62902   0.13289   Biso      1.000     O          -0.47424499999999997          
         O11       1.0000    0.92450   0.44118   0.39534   Biso      1.000     O          -0.561888           
         O12       1.0000    0.36847   0.04562   0.96375   Biso      1.000     O          -0.5997060000000001           
         O13       1.0000    0.26191   0.66440   0.36711   Biso      1.000     O          -0.47437799999999997          
         O14       1.0000    0.06186   0.31612   0.40760   Biso      1.000     O          -0.5296960000000001           
         O15       1.0000    0.50937   0.33222   0.53625   Biso      1.000     O          -0.6003109999999999           
         O16       1.0000    0.07550   0.55882   0.60466   Biso      1.000     O          -0.5618920000000001           
         O17       1.0000    0.22372   0.46946   0.09240   Biso      1.000     O          -0.528909           
         O18       1.0000    0.77628   0.53054   0.90760   Biso      1.000     O          -0.5288970000000001           
         O19       1.0000    0.93814   0.68388   0.59240   Biso      1.000     O          -0.529691           
         O20       1.0000    0.24999   0.78836   0.99929   Biso      1.000     O          -0.549872           
         O21       1.0000    0.49063   0.66778   0.46375   Biso      1.000     O          -0.600294           
         O22       1.0000    0.68367   0.25984   0.81019   Biso      1.000     O          -0.445579           
         O23       1.0000    0.57003   0.49386   0.68981   Biso      1.000     O          -0.443688           
         O24       1.0000    0.02665   0.77256   0.92789   Biso      1.000     O          -0.094485           
         O25       1.0000    0.75001   0.21164   0.00071   Biso      1.000     O          -0.5498970000000001           
         O26       1.0000    0.66348   0.68016   0.89534   Biso      1.000     O          -0.560719           
         O27       1.0000    0.42997   0.50614   0.31019   Biso      1.000     O          -0.44368599999999997          
         O28       1.0000    0.79955   0.04546   0.42789   Biso      1.000     O          -0.09474400000000001 