
##########################################################################
#               Crystallographic Information Format file
#               Produced by PyCifRW module
#
#  This is a CIF file.  CIF has been adopted by the International
#  Union of Crystallography as the standard for data archiving and
#  transmission.
#
#  For information on this file format, follow the CIF links at
#  http://www.iucr.org
##########################################################################

data_image0

_cell_length_a                          7.3519
_cell_length_b                          9.7295
_cell_length_c                          14.7661
_cell_angle_alpha                       90
_cell_angle_beta                        99.6276
_cell_angle_gamma                       90
_symmetry_space_group_name_H-M          'P 1'
_symmetry_int_tables_number             1
loop_
  _symmetry_equiv_pos_as_xyz
         'x, y, z' 
loop_
  _atom_site_label
  _atom_site_occupancy
  _atom_site_fract_x
  _atom_site_fract_y
  _atom_site_fract_z
  _atom_site_thermal_displace_type
  _atom_site_B_iso_or_equiv
  _atom_site_type_symbol
  _atom_site_charge
         C1        1.0000    0.10710   0.77300   0.99640   Biso      1.000     C          0.579805  
         C2        1.0000    0.54260   0.96510   0.96190   Biso      1.000     C          0.49687600000000004           
         C3        1.0000    0.68640   0.62430   0.15230   Biso      1.000     C          0.577227  
         C4        1.0000    0.72560   0.54790   0.07200   Biso      1.000     C          0.102671  
         C5        1.0000    0.71460   0.58070   0.98210   Biso      1.000     C          -0.168134           
         C6        1.0000    0.77000   0.46240   0.93790   Biso      1.000     C          -0.175321           
         C7        1.0000    0.81300   0.36490   0.00400   Biso      1.000     C          0.117907  
         C8        1.0000    0.89290   0.22700   0.00360   Biso      1.000     C          0.579792  
         C9        1.0000    0.95740   0.46510   0.53810   Biso      1.000     C          0.496881  
         C10       1.0000    0.81360   0.12430   0.34770   Biso      1.000     C          0.577237  
         C11       1.0000    0.77440   0.04790   0.42800   Biso      1.000     C          0.102648  
         C12       1.0000    0.78540   0.08070   0.51790   Biso      1.000     C          -0.168138           
         C13       1.0000    0.73000   0.96240   0.56210   Biso      1.000     C          -0.175322           
         C14       1.0000    0.68700   0.86490   0.49600   Biso      1.000     C          0.117881  
         C15       1.0000    0.60710   0.72700   0.49640   Biso      1.000     C          0.5797939999999999  
         C16       1.0000    0.27000   0.03760   0.43790   Biso      1.000     C          -0.175325           
         C17       1.0000    0.21460   0.91930   0.48210   Biso      1.000     C          -0.168154           
         C18       1.0000    0.22560   0.95210   0.57200   Biso      1.000     C          0.10268499999999998           
         C19       1.0000    0.18640   0.87570   0.65230   Biso      1.000     C          0.5772229999999999  
         C20       1.0000    0.04260   0.53490   0.46190   Biso      1.000     C          0.496879  
         C21       1.0000    0.18700   0.63510   0.99600   Biso      1.000     C          0.117861  
         C22       1.0000    0.23000   0.53760   0.06210   Biso      1.000     C          -0.175311           
         C23       1.0000    0.28540   0.41930   0.01790   Biso      1.000     C          -0.168156           
         C24       1.0000    0.27440   0.45210   0.92800   Biso      1.000     C          0.10265899999999999           
         C25       1.0000    0.31360   0.37570   0.84770   Biso      1.000     C          0.5772390000000001  
         C26       1.0000    0.45740   0.03490   0.03810   Biso      1.000     C          0.49687200000000004           
         C27       1.0000    0.39290   0.27300   0.50360   Biso      1.000     C          0.579792  
         C28       1.0000    0.31300   0.13510   0.50400   Biso      1.000     C          0.117897  
         Eu1       1.0000    0.63539   0.44491   0.35726   Biso      1.000     Eu          1.386892  
         Eu2       1.0000    0.13539   0.05509   0.85726   Biso      1.000     Eu          1.3868790000000002  
         Eu3       1.0000    0.36461   0.55509   0.64274   Biso      1.000     Eu          1.386871  
         Eu4       1.0000    0.86461   0.94491   0.14274   Biso      1.000     Eu          1.386889  
         H1        1.0000    0.22440   0.54690   0.12430   Biso      1.000     H          0.159201  
         H2        1.0000    0.17800   0.83540   0.45480   Biso      1.000     H          0.162063  
         H3        1.0000    0.27560   0.04690   0.37570   Biso      1.000     H          0.15920299999999998           
         H4        1.0000    0.67800   0.66460   0.95480   Biso      1.000     H          0.16206099999999998           
         H5        1.0000    0.77560   0.45310   0.87570   Biso      1.000     H          0.159198  
         H6        1.0000    0.82200   0.16460   0.54520   Biso      1.000     H          0.162064  
         H7        1.0000    0.72440   0.95310   0.62430   Biso      1.000     H          0.159202  
         H8        1.0000    0.32200   0.33540   0.04520   Biso      1.000     H          0.16206700000000002           
         O1        1.0000    0.41340   0.34020   0.57710   Biso      1.000     O          -0.548111           
         O2        1.0000    0.43760   0.31180   0.42920   Biso      1.000     O          -0.589558           
         O3        1.0000    0.28320   0.08580   0.58680   Biso      1.000     O          -0.104064           
         O4        1.0000    0.16450   0.74730   0.64280   Biso      1.000     O          -0.551535           
         O5        1.0000    0.17730   0.93950   0.72440   Biso      1.000     O          -0.549146           
         O6        1.0000    0.21680   0.58580   0.91320   Biso      1.000     O          -0.104046           
         O7        1.0000    0.29290   0.07500   0.01820   Biso      1.000     O          -0.45692  
         O8        1.0000    0.08660   0.84020   0.92290   Biso      1.000     O          -0.548114           
         O9        1.0000    0.06240   0.81180   0.07080   Biso      1.000     O          -0.589561           
         O10       1.0000    0.20710   0.57500   0.48180   Biso      1.000     O          -0.45691000000000004          
         O11       1.0000    0.33550   0.24730   0.85720   Biso      1.000     O          -0.551554           
         O12       1.0000    0.94180   0.54690   0.38480   Biso      1.000     O          -0.439804           
         O13       1.0000    0.44180   0.95310   0.88480   Biso      1.000     O          -0.439791           
         O14       1.0000    0.91340   0.15980   0.07710   Biso      1.000     O          -0.5481159999999999           
         O15       1.0000    0.66450   0.75270   0.14280   Biso      1.000     O          -0.5515439999999999           
         O16       1.0000    0.78320   0.41420   0.08680   Biso      1.000     O          -0.104065           
         O17       1.0000    0.93760   0.18820   0.92920   Biso      1.000     O          -0.589559           
         O18       1.0000    0.70710   0.92500   0.98180   Biso      1.000     O          -0.45692200000000005          
         O19       1.0000    0.05820   0.45310   0.61520   Biso      1.000     O          -0.439802           
         O20       1.0000    0.82270   0.06050   0.27560   Biso      1.000     O          -0.5491590000000001           
         O21       1.0000    0.83550   0.25270   0.35720   Biso      1.000     O          -0.551549           
         O22       1.0000    0.71680   0.91420   0.41320   Biso      1.000     O          -0.10405  
         O23       1.0000    0.56240   0.68820   0.57080   Biso      1.000     O          -0.5895560000000001           
         O24       1.0000    0.58660   0.65980   0.42290   Biso      1.000     O          -0.548114           
         O25       1.0000    0.79290   0.42500   0.51820   Biso      1.000     O          -0.45691400000000004          
         O26       1.0000    0.32270   0.43950   0.77560   Biso      1.000     O          -0.5491560000000001           
         O27       1.0000    0.67730   0.56050   0.22440   Biso      1.000     O          -0.549139           
         O28       1.0000    0.55820   0.04690   0.11520   Biso      1.000     O          -0.43979300000000005 