
##########################################################################
#               Crystallographic Information Format file
#               Produced by PyCifRW module
#
#  This is a CIF file.  CIF has been adopted by the International
#  Union of Crystallography as the standard for data archiving and
#  transmission.
#
#  For information on this file format, follow the CIF links at
#  http://www.iucr.org
##########################################################################

data_image0

_cell_length_a                          7.3173
_cell_length_b                          9.7022
_cell_length_c                          14.7083
_cell_angle_alpha                       90
_cell_angle_beta                        99.5206
_cell_angle_gamma                       90
_symmetry_space_group_name_H-M          'P 1'
_symmetry_int_tables_number             1
loop_
  _symmetry_equiv_pos_as_xyz
         'x, y, z' 
loop_
  _atom_site_label
  _atom_site_occupancy
  _atom_site_fract_x
  _atom_site_fract_y
  _atom_site_fract_z
  _atom_site_thermal_displace_type
  _atom_site_B_iso_or_equiv
  _atom_site_type_symbol
  _atom_site_charge
         C1        1.0000    0.10570   0.77340   0.99660   Biso      1.000     C          0.668949  
         C2        1.0000    0.54280   0.96490   0.96150   Biso      1.000     C          0.5200560000000001  
         C3        1.0000    0.68790   0.62430   0.15280   Biso      1.000     C          0.643748  
         C4        1.0000    0.72430   0.54730   0.07190   Biso      1.000     C          0.065748  
         C5        1.0000    0.71600   0.58060   0.98220   Biso      1.000     C          -0.173583           
         C6        1.0000    0.77080   0.46210   0.93810   Biso      1.000     C          -0.182326           
         C7        1.0000    0.81160   0.36500   0.00340   Biso      1.000     C          0.085658  
         C8        1.0000    0.89430   0.22660   0.00340   Biso      1.000     C          0.6689470000000001  
         C9        1.0000    0.95720   0.46490   0.53850   Biso      1.000     C          0.5200560000000001  
         C10       1.0000    0.81210   0.12430   0.34720   Biso      1.000     C          0.643748  
         C11       1.0000    0.77570   0.04730   0.42810   Biso      1.000     C          0.065748  
         C12       1.0000    0.78400   0.08060   0.51780   Biso      1.000     C          -0.173583           
         C13       1.0000    0.72920   0.96210   0.56190   Biso      1.000     C          -0.182326           
         C14       1.0000    0.68840   0.86500   0.49660   Biso      1.000     C          0.085658  
         C15       1.0000    0.60570   0.72660   0.49660   Biso      1.000     C          0.6689470000000001  
         C16       1.0000    0.27080   0.03790   0.43810   Biso      1.000     C          -0.182324           
         C17       1.0000    0.21600   0.91940   0.48220   Biso      1.000     C          -0.173604           
         C18       1.0000    0.22430   0.95270   0.57190   Biso      1.000     C          0.06576699999999999           
         C19       1.0000    0.18790   0.87570   0.65280   Biso      1.000     C          0.6437470000000001  
         C20       1.0000    0.04280   0.53510   0.46150   Biso      1.000     C          0.5200560000000001  
         C21       1.0000    0.18840   0.63500   0.99660   Biso      1.000     C          0.085635  
         C22       1.0000    0.22920   0.53790   0.06190   Biso      1.000     C          -0.18229800000000002          
         C23       1.0000    0.28400   0.41940   0.01780   Biso      1.000     C          -0.17360699999999998          
         C24       1.0000    0.27570   0.45270   0.92810   Biso      1.000     C          0.06576699999999999           
         C25       1.0000    0.31210   0.37570   0.84720   Biso      1.000     C          0.6437470000000001  
         C26       1.0000    0.45720   0.03510   0.03850   Biso      1.000     C          0.5200560000000001  
         C27       1.0000    0.39430   0.27340   0.50340   Biso      1.000     C          0.6689470000000001  
         C28       1.0000    0.31160   0.13500   0.50340   Biso      1.000     C          0.085658  
         Gd1       1.0000    0.63620   0.44495   0.35744   Biso      1.000     Gd          2.0901400000000003  
         Gd2       1.0000    0.13620   0.05505   0.85744   Biso      1.000     Gd          2.0901400000000003  
         Gd3       1.0000    0.36380   0.55505   0.64256   Biso      1.000     Gd          2.0901400000000003  
         Gd4       1.0000    0.86380   0.94495   0.14256   Biso      1.000     Gd          2.0901400000000003  
         H1        1.0000    0.22250   0.54700   0.12420   Biso      1.000     H          0.150813  
         H2        1.0000    0.18100   0.83490   0.45480   Biso      1.000     H          0.159456  
         H3        1.0000    0.27750   0.04700   0.37580   Biso      1.000     H          0.150815  
         H4        1.0000    0.68100   0.66510   0.95480   Biso      1.000     H          0.15945499999999999           
         H5        1.0000    0.77750   0.45300   0.87580   Biso      1.000     H          0.150816  
         H6        1.0000    0.81900   0.16510   0.54520   Biso      1.000     H          0.15945499999999999           
         H7        1.0000    0.72250   0.95300   0.62420   Biso      1.000     H          0.150815  
         H8        1.0000    0.31900   0.33490   0.04520   Biso      1.000     H          0.159456  
         O1        1.0000    0.41230   0.34050   0.57680   Biso      1.000     O          -0.66867  
         O2        1.0000    0.43850   0.31180   0.42880   Biso      1.000     O          -0.702555           
         O3        1.0000    0.28320   0.08570   0.58690   Biso      1.000     O          -0.099869           
         O4        1.0000    0.16420   0.74710   0.64330   Biso      1.000     O          -0.669411           
         O5        1.0000    0.17840   0.94000   0.72510   Biso      1.000     O          -0.684082           
         O6        1.0000    0.21680   0.58570   0.91310   Biso      1.000     O          -0.099867           
         O7        1.0000    0.29280   0.07570   0.01780   Biso      1.000     O          -0.612889           
         O8        1.0000    0.08770   0.84050   0.92320   Biso      1.000     O          -0.66867  
         O9        1.0000    0.06150   0.81180   0.07120   Biso      1.000     O          -0.702555           
         O10       1.0000    0.20720   0.57570   0.48220   Biso      1.000     O          -0.612889           
         O11       1.0000    0.33580   0.24710   0.85670   Biso      1.000     O          -0.669411           
         O12       1.0000    0.94250   0.54630   0.38410   Biso      1.000     O          -0.591184           
         O13       1.0000    0.44250   0.95370   0.88410   Biso      1.000     O          -0.591184           
         O14       1.0000    0.91230   0.15950   0.07680   Biso      1.000     O          -0.66867  
         O15       1.0000    0.66420   0.75290   0.14330   Biso      1.000     O          -0.669412           
         O16       1.0000    0.78320   0.41430   0.08690   Biso      1.000     O          -0.099867           
         O17       1.0000    0.93850   0.18820   0.92880   Biso      1.000     O          -0.702554           
         O18       1.0000    0.70720   0.92430   0.98220   Biso      1.000     O          -0.612889           
         O19       1.0000    0.05750   0.45370   0.61590   Biso      1.000     O          -0.591184           
         O20       1.0000    0.82160   0.06000   0.27490   Biso      1.000     O          -0.684082           
         O21       1.0000    0.83580   0.25290   0.35670   Biso      1.000     O          -0.669412           
         O22       1.0000    0.71680   0.91430   0.41310   Biso      1.000     O          -0.099867           
         O23       1.0000    0.56150   0.68820   0.57120   Biso      1.000     O          -0.702554           
         O24       1.0000    0.58770   0.65950   0.42320   Biso      1.000     O          -0.66867  
         O25       1.0000    0.79280   0.42430   0.51780   Biso      1.000     O          -0.612889           
         O26       1.0000    0.32160   0.44000   0.77490   Biso      1.000     O          -0.684081           
         O27       1.0000    0.67840   0.56000   0.22510   Biso      1.000     O          -0.684082           
         O28       1.0000    0.55750   0.04630   0.11590   Biso      1.000     O          -0.591184 