
##########################################################################
#               Crystallographic Information Format file
#               Produced by PyCifRW module
#
#  This is a CIF file.  CIF has been adopted by the International
#  Union of Crystallography as the standard for data archiving and
#  transmission.
#
#  For information on this file format, follow the CIF links at
#  http://www.iucr.org
##########################################################################

data_image0

_cell_length_a                          7.4128
_cell_length_b                          9.771
_cell_length_c                          14.8383
_cell_angle_alpha                       90
_cell_angle_beta                        99.9788
_cell_angle_gamma                       90
_symmetry_space_group_name_H-M          'P 1'
_symmetry_int_tables_number             1
loop_
  _symmetry_equiv_pos_as_xyz
         'x, y, z' 
loop_
  _atom_site_label
  _atom_site_occupancy
  _atom_site_fract_x
  _atom_site_fract_y
  _atom_site_fract_z
  _atom_site_thermal_displace_type
  _atom_site_B_iso_or_equiv
  _atom_site_type_symbol
  _atom_site_charge
         C1        1.0000    0.10750   0.77120   0.99610   Biso      1.000     C          0.6646569999999999  
         C2        1.0000    0.81360   0.36720   0.00380   Biso      1.000     C          0.087325  
         C3        1.0000    0.77150   0.46300   0.93870   Biso      1.000     C          -0.18396700000000002          
         C4        1.0000    0.71650   0.58130   0.98200   Biso      1.000     C          -0.173611           
         C5        1.0000    0.72440   0.54730   0.07120   Biso      1.000     C          0.064075  
         C6        1.0000    0.68420   0.62390   0.15070   Biso      1.000     C          0.642103  
         C7        1.0000    0.54270   0.96590   0.96180   Biso      1.000     C          0.52225   
         C8        1.0000    0.89250   0.22880   0.00390   Biso      1.000     C          0.6646569999999999  
         C9        1.0000    0.39250   0.27120   0.50390   Biso      1.000     C          0.664655  
         C10       1.0000    0.27150   0.03700   0.43870   Biso      1.000     C          -0.18399100000000002          
         C11       1.0000    0.21650   0.91870   0.48200   Biso      1.000     C          -0.17360799999999998          
         C12       1.0000    0.22440   0.95270   0.57120   Biso      1.000     C          0.064075  
         C13       1.0000    0.18420   0.87610   0.65070   Biso      1.000     C          0.642103  
         C14       1.0000    0.04270   0.53410   0.46180   Biso      1.000     C          0.52225   
         C15       1.0000    0.28350   0.41870   0.01800   Biso      1.000     C          -0.173611           
         C16       1.0000    0.31360   0.13280   0.50380   Biso      1.000     C          0.08734700000000001           
         C17       1.0000    0.95730   0.46590   0.53820   Biso      1.000     C          0.52225   
         C18       1.0000    0.81580   0.12390   0.34930   Biso      1.000     C          0.642104  
         C19       1.0000    0.77560   0.04730   0.42880   Biso      1.000     C          0.064064  
         C20       1.0000    0.45730   0.03410   0.03820   Biso      1.000     C          0.52225   
         C21       1.0000    0.31580   0.37610   0.84930   Biso      1.000     C          0.642103  
         C22       1.0000    0.27560   0.45270   0.92880   Biso      1.000     C          0.064075  
         C23       1.0000    0.18640   0.63280   0.99620   Biso      1.000     C          0.087325  
         C24       1.0000    0.22850   0.53700   0.06130   Biso      1.000     C          -0.18396700000000002          
         C25       1.0000    0.60750   0.72880   0.49610   Biso      1.000     C          0.6646569999999999  
         C26       1.0000    0.68640   0.86720   0.49620   Biso      1.000     C          0.087325  
         C27       1.0000    0.72850   0.96300   0.56130   Biso      1.000     C          -0.183969           
         C28       1.0000    0.78350   0.08130   0.51800   Biso      1.000     C          -0.173598           
         H1        1.0000    0.22270   0.54650   0.12310   Biso      1.000     H          0.148491  
         H2        1.0000    0.18200   0.83480   0.45480   Biso      1.000     H          0.15954000000000002           
         H3        1.0000    0.68200   0.66520   0.95480   Biso      1.000     H          0.15954000000000002           
         H4        1.0000    0.77730   0.45350   0.87690   Biso      1.000     H          0.148491  
         H5        1.0000    0.81800   0.16520   0.54520   Biso      1.000     H          0.15953900000000001           
         H6        1.0000    0.72270   0.95350   0.62310   Biso      1.000     H          0.148491  
         H7        1.0000    0.31800   0.33480   0.04520   Biso      1.000     H          0.15954000000000002           
         H8        1.0000    0.27730   0.04650   0.37690   Biso      1.000     H          0.148493  
         Nd1       1.0000    0.63246   0.44470   0.35660   Biso      1.000     Nd          2.123997  
         Nd2       1.0000    0.13246   0.05530   0.85660   Biso      1.000     Nd          2.123997  
         Nd3       1.0000    0.36754   0.55530   0.64340   Biso      1.000     Nd          2.123998  
         Nd4       1.0000    0.86754   0.94470   0.14340   Biso      1.000     Nd          2.123997  
         O1        1.0000    0.33780   0.24880   0.85850   Biso      1.000     O          -0.669539           
         O2        1.0000    0.21640   0.58460   0.91380   Biso      1.000     O          -0.099066           
         O3        1.0000    0.06460   0.81030   0.06950   Biso      1.000     O          -0.707358           
         O4        1.0000    0.08270   0.83630   0.92210   Biso      1.000     O          -0.674255           
         O5        1.0000    0.29460   0.07250   0.01850   Biso      1.000     O          -0.612571           
         O6        1.0000    0.94100   0.54880   0.38590   Biso      1.000     O          -0.598533           
         O7        1.0000    0.17360   0.94060   0.72160   Biso      1.000     O          -0.693539           
         O8        1.0000    0.16220   0.74880   0.64150   Biso      1.000     O          -0.6695399999999999           
         O9        1.0000    0.28360   0.08460   0.58620   Biso      1.000     O          -0.09906799999999999          
         O10       1.0000    0.43540   0.31030   0.43050   Biso      1.000     O          -0.707357           
         O11       1.0000    0.41730   0.33630   0.57790   Biso      1.000     O          -0.674254           
         O12       1.0000    0.20540   0.57250   0.48150   Biso      1.000     O          -0.612571           
         O13       1.0000    0.44100   0.95120   0.88590   Biso      1.000     O          -0.598533           
         O14       1.0000    0.67360   0.55940   0.22160   Biso      1.000     O          -0.6935399999999999           
         O15       1.0000    0.66220   0.75120   0.14150   Biso      1.000     O          -0.669539           
         O16       1.0000    0.78360   0.41540   0.08620   Biso      1.000     O          -0.099066           
         O17       1.0000    0.93540   0.18970   0.93050   Biso      1.000     O          -0.707358           
         O18       1.0000    0.91730   0.16370   0.07790   Biso      1.000     O          -0.674255           
         O19       1.0000    0.70540   0.92750   0.98150   Biso      1.000     O          -0.612571           
         O20       1.0000    0.05900   0.45120   0.61410   Biso      1.000     O          -0.598533           
         O21       1.0000    0.82640   0.05940   0.27840   Biso      1.000     O          -0.693539           
         O22       1.0000    0.83780   0.25120   0.35850   Biso      1.000     O          -0.6695399999999999           
         O23       1.0000    0.71640   0.91540   0.41380   Biso      1.000     O          -0.099065           
         O24       1.0000    0.56460   0.68970   0.56950   Biso      1.000     O          -0.707358           
         O25       1.0000    0.58270   0.66370   0.42210   Biso      1.000     O          -0.674255           
         O26       1.0000    0.79460   0.42750   0.51850   Biso      1.000     O          -0.612571           
         O27       1.0000    0.32640   0.44060   0.77840   Biso      1.000     O          -0.6935399999999999           
         O28       1.0000    0.55900   0.04880   0.11410   Biso      1.000     O          -0.598533 