
##########################################################################
#               Crystallographic Information Format file
#               Produced by PyCifRW module
#
#  This is a CIF file.  CIF has been adopted by the International
#  Union of Crystallography as the standard for data archiving and
#  transmission.
#
#  For information on this file format, follow the CIF links at
#  http://www.iucr.org
##########################################################################

data_image0

_cell_length_a                          9.9513
_cell_length_b                          9.9513
_cell_length_c                          13.4849
_cell_angle_alpha                       85.7894
_cell_angle_beta                        69.7656
_cell_angle_gamma                       115.584
_symmetry_space_group_name_H-M          'P 1'
_symmetry_int_tables_number             1
loop_
  _symmetry_equiv_pos_as_xyz
         'x, y, z' 
loop_
  _atom_site_label
  _atom_site_occupancy
  _atom_site_fract_x
  _atom_site_fract_y
  _atom_site_fract_z
  _atom_site_thermal_displace_type
  _atom_site_B_iso_or_equiv
  _atom_site_type_symbol
  _atom_site_charge
         C1        1.0000    0.23370   0.08220   0.53810   Biso      1.000     C          0.632426  
         C2        1.0000    0.27880   0.65780   0.39960   Biso      1.000     C          0.651753  
         C3        1.0000    0.48880   0.95090   0.35230   Biso      1.000     C          -0.190337           
         C4        1.0000    0.17140   0.32780   0.23440   Biso      1.000     C          0.525561  
         C5        1.0000    0.12030   0.77180   0.96190   Biso      1.000     C          0.634896  
         C6        1.0000    0.31410   0.18270   0.88880   Biso      1.000     C          0.080537  
         C7        1.0000    0.10290   0.99800   0.87090   Biso      1.000     C          -0.168834           
         C8        1.0000    0.44260   0.32160   0.89960   Biso      1.000     C          0.64983   
         C9        1.0000    0.63110   0.02620   0.37090   Biso      1.000     C          -0.172439           
         C10       1.0000    0.19680   0.15890   0.85230   Biso      1.000     C          -0.191084           
         C11       1.0000    0.16730   0.93290   0.91820   Biso      1.000     C          0.076578  
         C12       1.0000    0.57150   0.20290   0.61120   Biso      1.000     C          0.083912  
         C13       1.0000    0.36890   0.97380   0.62910   Biso      1.000     C          -0.17244  
         C14       1.0000    0.72120   0.34220   0.60040   Biso      1.000     C          0.651754  
         C15       1.0000    0.51120   0.04910   0.64770   Biso      1.000     C          -0.190323           
         C16       1.0000    0.82860   0.67220   0.76560   Biso      1.000     C          0.525561  
         C17       1.0000    0.35110   0.08550   0.58180   Biso      1.000     C          0.077898  
         C18       1.0000    0.93780   0.59420   0.73440   Biso      1.000     C          0.521082  
         C19       1.0000    0.42850   0.79710   0.38880   Biso      1.000     C          0.083925  
         C20       1.0000    0.64890   0.91450   0.41820   Biso      1.000     C          0.077898  
         C21       1.0000    0.83270   0.06710   0.08180   Biso      1.000     C          0.076563  
         C22       1.0000    0.06220   0.40580   0.26560   Biso      1.000     C          0.521082  
         C23       1.0000    0.80320   0.84110   0.14770   Biso      1.000     C          -0.191098           
         C24       1.0000    0.55740   0.67840   0.10040   Biso      1.000     C          0.649829  
         C25       1.0000    0.89710   0.00200   0.12910   Biso      1.000     C          -0.168816           
         C26       1.0000    0.68590   0.81730   0.11120   Biso      1.000     C          0.080549  
         C27       1.0000    0.87970   0.22820   0.03810   Biso      1.000     C          0.634897  
         C28       1.0000    0.76630   0.91780   0.46190   Biso      1.000     C          0.632426  
         H1        1.0000    0.98620   0.05320   0.14600   Biso      1.000     H          0.154781  
         H2        1.0000    0.69920   0.13220   0.35400   Biso      1.000     H          0.156763  
         H3        1.0000    0.44470   0.99780   0.32090   Biso      1.000     H          0.149632  
         H4        1.0000    0.81870   0.76560   0.17910   Biso      1.000     H          0.149953  
         H5        1.0000    0.18130   0.23440   0.82090   Biso      1.000     H          0.149952  
         H6        1.0000    0.30080   0.86780   0.64600   Biso      1.000     H          0.156763  
         H7        1.0000    0.55530   0.00220   0.67910   Biso      1.000     H          0.149631  
         H8        1.0000    0.01380   0.94680   0.85400   Biso      1.000     H          0.154783  
         O1        1.0000    0.23690   0.33490   0.13540   Biso      1.000     O          -0.625554           
         O2        1.0000    0.99260   0.66860   0.96300   Biso      1.000     O          -0.709561           
         O3        1.0000    0.21340   0.75010   0.99730   Biso      1.000     O          -0.669441           
         O4        1.0000    0.92790   0.50650   0.81040   Biso      1.000     O          -0.591044           
         O5        1.0000    0.42230   0.43770   0.89760   Biso      1.000     O          -0.713369           
         O6        1.0000    0.29960   0.04410   0.92810   Biso      1.000     O          -0.090583           
         O7        1.0000    0.02970   0.62770   0.63540   Biso      1.000     O          -0.623361           
         O8        1.0000    0.13160   0.95560   0.53700   Biso      1.000     O          -0.708083           
         O9        1.0000    0.47220   0.22770   0.57190   Biso      1.000     O          -0.092556           
         O10       1.0000    0.83530   0.31990   0.60240   Biso      1.000     O          -0.714514           
         O11       1.0000    0.81690   0.73830   0.68960   Biso      1.000     O          -0.592819           
         O12       1.0000    0.27470   0.53050   0.41000   Biso      1.000     O          -0.622087           
         O13       1.0000    0.24740   0.21070   0.50270   Biso      1.000     O          -0.668916           
         O14       1.0000    0.55950   0.31530   0.91000   Biso      1.000     O          -0.619933           
         O15       1.0000    0.52780   0.77230   0.42810   Biso      1.000     O          -0.092556           
         O16       1.0000    0.76310   0.66510   0.86460   Biso      1.000     O          -0.625553           
         O17       1.0000    0.18310   0.26170   0.31040   Biso      1.000     O          -0.592819           
         O18       1.0000    0.75260   0.78930   0.49730   Biso      1.000     O          -0.668916           
         O19       1.0000    0.86840   0.04440   0.46300   Biso      1.000     O          -0.708083           
         O20       1.0000    0.97030   0.37230   0.36460   Biso      1.000     O          -0.623361           
         O21       1.0000    0.44050   0.68470   0.09000   Biso      1.000     O          -0.619933           
         O22       1.0000    0.70040   0.95590   0.07190   Biso      1.000     O          -0.090583           
         O23       1.0000    0.57770   0.56230   0.10240   Biso      1.000     O          -0.713369           
         O24       1.0000    0.07210   0.49350   0.18960   Biso      1.000     O          -0.591044           
         O25       1.0000    0.78660   0.24990   0.00270   Biso      1.000     O          -0.669441           
         O26       1.0000    0.00740   0.33140   0.03700   Biso      1.000     O          -0.709562           
         O27       1.0000    0.72530   0.46950   0.59000   Biso      1.000     O          -0.622087           
         O28       1.0000    0.16470   0.68010   0.39760   Biso      1.000     O          -0.714514           
         Sm1       1.0000    0.95943   0.73253   0.50196   Biso      1.000     Sm          2.10941   
         Sm2       1.0000    0.73449   0.46139   0.99804   Biso      1.000     Sm          2.109488  
         Sm3       1.0000    0.04057   0.26747   0.49804   Biso      1.000     Sm          2.109411  
         Sm4       1.0000    0.26551   0.53861   0.00196   Biso      1.000     Sm          2.109489 