
##########################################################################
#               Crystallographic Information Format file
#               Produced by PyCifRW module
#
#  This is a CIF file.  CIF has been adopted by the International
#  Union of Crystallography as the standard for data archiving and
#  transmission.
#
#  For information on this file format, follow the CIF links at
#  http://www.iucr.org
##########################################################################

data_image0

_cell_length_a                          7.3108
_cell_length_b                          9.722
_cell_length_c                          14.6825
_cell_angle_alpha                       90
_cell_angle_beta                        99.3817
_cell_angle_gamma                       90
_symmetry_space_group_name_H-M          'P 1'
_symmetry_int_tables_number             1
loop_
  _symmetry_equiv_pos_as_xyz
         'x, y, z' 
loop_
  _atom_site_label
  _atom_site_occupancy
  _atom_site_fract_x
  _atom_site_fract_y
  _atom_site_fract_z
  _atom_site_thermal_displace_type
  _atom_site_B_iso_or_equiv
  _atom_site_type_symbol
  _atom_site_charge
         C1        1.0000    0.10670   0.77410   0.99680   Biso      1.000     C          0.673431  
         C2        1.0000    0.71420   0.58100   0.98200   Biso      1.000     C          -0.170692           
         C3        1.0000    0.72570   0.54780   0.07230   Biso      1.000     C          0.065106  
         C4        1.0000    0.68740   0.62470   0.15310   Biso      1.000     C          0.645237  
         C5        1.0000    0.39330   0.27410   0.50320   Biso      1.000     C          0.673431  
         C6        1.0000    0.31280   0.13560   0.50370   Biso      1.000     C          0.08774   
         C7        1.0000    0.27040   0.03760   0.43750   Biso      1.000     C          -0.184708           
         C8        1.0000    0.21420   0.91900   0.48200   Biso      1.000     C          -0.170693           
         C9        1.0000    0.77040   0.46240   0.93750   Biso      1.000     C          -0.184722           
         C10       1.0000    0.22570   0.95220   0.57230   Biso      1.000     C          0.065106  
         C11       1.0000    0.04330   0.53510   0.46160   Biso      1.000     C          0.521703  
         C12       1.0000    0.18720   0.63560   0.99630   Biso      1.000     C          0.087741  
         C13       1.0000    0.22960   0.53760   0.06250   Biso      1.000     C          -0.184708           
         C14       1.0000    0.28580   0.41900   0.01800   Biso      1.000     C          -0.170693           
         C15       1.0000    0.27430   0.45220   0.92770   Biso      1.000     C          0.065106  
         C16       1.0000    0.31260   0.37530   0.84690   Biso      1.000     C          0.645237  
         C17       1.0000    0.45670   0.03510   0.03840   Biso      1.000     C          0.521703  
         C18       1.0000    0.18740   0.87530   0.65310   Biso      1.000     C          0.645237  
         C19       1.0000    0.81280   0.36440   0.00370   Biso      1.000     C          0.087754  
         C20       1.0000    0.54330   0.96490   0.96160   Biso      1.000     C          0.521703  
         C21       1.0000    0.95670   0.46490   0.53840   Biso      1.000     C          0.521703  
         C22       1.0000    0.81260   0.12470   0.34690   Biso      1.000     C          0.645238  
         C23       1.0000    0.77430   0.04780   0.42770   Biso      1.000     C          0.065089  
         C24       1.0000    0.78580   0.08100   0.51800   Biso      1.000     C          -0.170672           
         C25       1.0000    0.72960   0.96240   0.56250   Biso      1.000     C          -0.184725           
         C26       1.0000    0.68720   0.86440   0.49630   Biso      1.000     C          0.087754  
         C27       1.0000    0.60670   0.72590   0.49680   Biso      1.000     C          0.67343   
         C28       1.0000    0.89330   0.22590   0.00320   Biso      1.000     C          0.67343   
         H1        1.0000    0.72290   0.95330   0.62490   Biso      1.000     H          0.150192  
         H2        1.0000    0.77710   0.45330   0.87510   Biso      1.000     H          0.150192  
         H3        1.0000    0.67700   0.66480   0.95460   Biso      1.000     H          0.162315  
         H4        1.0000    0.82300   0.16480   0.54540   Biso      1.000     H          0.162313  
         H5        1.0000    0.17700   0.83520   0.45460   Biso      1.000     H          0.162315  
         H6        1.0000    0.22290   0.54670   0.12490   Biso      1.000     H          0.150191  
         H7        1.0000    0.32300   0.33520   0.04540   Biso      1.000     H          0.162315  
         H8        1.0000    0.27710   0.04670   0.37510   Biso      1.000     H          0.150191  
         O1        1.0000    0.44340   0.95400   0.88400   Biso      1.000     O          -0.595472           
         O2        1.0000    0.20750   0.57550   0.48220   Biso      1.000     O          -0.61522  
         O3        1.0000    0.41134   0.34180   0.57674   Biso      1.000     O          -0.678421           
         O4        1.0000    0.44057   0.31210   0.42927   Biso      1.000     O          -0.708282           
         O5        1.0000    0.28348   0.08620   0.58688   Biso      1.000     O          -0.099273           
         O6        1.0000    0.16465   0.74620   0.64355   Biso      1.000     O          -0.677266           
         O7        1.0000    0.94340   0.54600   0.38400   Biso      1.000     O          -0.595472           
         O8        1.0000    0.29250   0.07550   0.01780   Biso      1.000     O          -0.61522  
         O9        1.0000    0.33535   0.24620   0.85645   Biso      1.000     O          -0.677266           
         O10       1.0000    0.21652   0.58620   0.91312   Biso      1.000     O          -0.099273           
         O11       1.0000    0.05943   0.81210   0.07073   Biso      1.000     O          -0.708282           
         O12       1.0000    0.67980   0.56100   0.22600   Biso      1.000     O          -0.689494           
         O13       1.0000    0.08866   0.84180   0.92326   Biso      1.000     O          -0.678421           
         O14       1.0000    0.17980   0.93900   0.72600   Biso      1.000     O          -0.689494           
         O15       1.0000    0.66465   0.75380   0.14355   Biso      1.000     O          -0.677266           
         O16       1.0000    0.55660   0.04600   0.11600   Biso      1.000     O          -0.595472           
         O17       1.0000    0.94057   0.18790   0.92927   Biso      1.000     O          -0.708282           
         O18       1.0000    0.91134   0.15820   0.07674   Biso      1.000     O          -0.678421           
         O19       1.0000    0.70750   0.92450   0.98220   Biso      1.000     O          -0.61522  
         O20       1.0000    0.05660   0.45400   0.61600   Biso      1.000     O          -0.595472           
         O21       1.0000    0.82020   0.06100   0.27400   Biso      1.000     O          -0.689494           
         O22       1.0000    0.83535   0.25380   0.35645   Biso      1.000     O          -0.677266           
         O23       1.0000    0.71652   0.91380   0.41312   Biso      1.000     O          -0.099272           
         O24       1.0000    0.55943   0.68790   0.57073   Biso      1.000     O          -0.708282           
         O25       1.0000    0.58866   0.65820   0.42326   Biso      1.000     O          -0.678421           
         O26       1.0000    0.79250   0.42450   0.51780   Biso      1.000     O          -0.61522  
         O27       1.0000    0.32020   0.43900   0.77400   Biso      1.000     O          -0.689494           
         O28       1.0000    0.78348   0.41380   0.08688   Biso      1.000     O          -0.099274           
         Tb1       1.0000    0.13728   0.05489   0.85767   Biso      1.000     Tb          2.113106  
         Tb2       1.0000    0.36272   0.55489   0.64233   Biso      1.000     Tb          2.113106  
         Tb3       1.0000    0.86272   0.94511   0.14233   Biso      1.000     Tb          2.113107  
         Tb4       1.0000    0.63728   0.44511   0.35767   Biso      1.000     Tb          2.113107 