
##########################################################################
#               Crystallographic Information Format file
#               Produced by PyCifRW module
#
#  This is a CIF file.  CIF has been adopted by the International
#  Union of Crystallography as the standard for data archiving and
#  transmission.
#
#  For information on this file format, follow the CIF links at
#  http://www.iucr.org
##########################################################################

data_image0

_cell_length_a                          7.3165
_cell_length_b                          9.7247
_cell_length_c                          14.7458
_cell_angle_alpha                       90
_cell_angle_beta                        100.062
_cell_angle_gamma                       90
_symmetry_space_group_name_H-M          'P 1'
_symmetry_int_tables_number             1
loop_
  _symmetry_equiv_pos_as_xyz
         'x, y, z' 
loop_
  _atom_site_label
  _atom_site_occupancy
  _atom_site_fract_x
  _atom_site_fract_y
  _atom_site_fract_z
  _atom_site_thermal_displace_type
  _atom_site_B_iso_or_equiv
  _atom_site_type_symbol
  _atom_site_charge
         C1        1.0000    0.31180   0.86710   0.50333   Biso      1.000     C          0.11279700000000001           
         C2        1.0000    0.18820   0.36710   0.99667   Biso      1.000     C          0.112817  
         C3        1.0000    0.10630   0.22770   0.99614   Biso      1.000     C          0.580396  
         C4        1.0000    0.76960   0.53620   0.93647   Biso      1.000     C          -0.175746           
         C5        1.0000    0.78640   0.91690   0.51929   Biso      1.000     C          -0.168878           
         C6        1.0000    0.04310   0.46499   0.46135   Biso      1.000     C          0.499571  
         C7        1.0000    0.72430   0.45087   0.07085   Biso      1.000     C          0.10029600000000001           
         C8        1.0000    0.81620   0.87420   0.34873   Biso      1.000     C          0.571846  
         C9        1.0000    0.22430   0.04913   0.57085   Biso      1.000     C          0.100293  
         C10       1.0000    0.60630   0.27230   0.49614   Biso      1.000     C          0.580395  
         C11       1.0000    0.28640   0.58310   0.01929   Biso      1.000     C          -0.168879           
         C12       1.0000    0.77570   0.95087   0.42915   Biso      1.000     C          0.10033099999999999           
         C13       1.0000    0.81180   0.63290   0.00333   Biso      1.000     C          0.11280599999999999           
         C14       1.0000    0.68820   0.13290   0.49667   Biso      1.000     C          0.112825  
         C15       1.0000    0.45690   0.96499   0.03865   Biso      1.000     C          0.499572  
         C16       1.0000    0.26960   0.96380   0.43647   Biso      1.000     C          -0.17574700000000001          
         C17       1.0000    0.27570   0.54913   0.92915   Biso      1.000     C          0.100325  
         C18       1.0000    0.71360   0.41690   0.98071   Biso      1.000     C          -0.16886800000000002          
         C19       1.0000    0.39370   0.72770   0.50386   Biso      1.000     C          0.580421  
         C20       1.0000    0.21360   0.08310   0.48071   Biso      1.000     C          -0.16886800000000002          
         C21       1.0000    0.18380   0.12580   0.65127   Biso      1.000     C          0.571852  
         C22       1.0000    0.23040   0.46380   0.06353   Biso      1.000     C          -0.175739           
         C23       1.0000    0.54310   0.03501   0.96135   Biso      1.000     C          0.499571  
         C24       1.0000    0.73040   0.03620   0.56353   Biso      1.000     C          -0.17574  
         C25       1.0000    0.89370   0.77230   0.00386   Biso      1.000     C          0.580414  
         C26       1.0000    0.68380   0.37420   0.15127   Biso      1.000     C          0.571857  
         C27       1.0000    0.31620   0.62580   0.84873   Biso      1.000     C          0.57185   
         C28       1.0000    0.95690   0.53501   0.53865   Biso      1.000     C          0.499568  
         Eu1       1.0000    0.63219   0.55425   0.35641   Biso      1.000     Eu          1.390188  
         Eu2       1.0000    0.13219   0.94575   0.85641   Biso      1.000     Eu          1.390196  
         Eu3       1.0000    0.86781   0.05425   0.14359   Biso      1.000     Eu          1.390201  
         Eu4       1.0000    0.36781   0.44575   0.64359   Biso      1.000     Eu          1.3901860000000001  
         H1        1.0000    0.82370   0.83100   0.54720   Biso      1.000     H          0.161838  
         H2        1.0000    0.27600   0.95400   0.37300   Biso      1.000     H          0.159773  
         H3        1.0000    0.17630   0.16900   0.45280   Biso      1.000     H          0.16183699999999998           
         H4        1.0000    0.22400   0.45400   0.12700   Biso      1.000     H          0.15976600000000002           
         H5        1.0000    0.77600   0.54600   0.87300   Biso      1.000     H          0.15977   
         H6        1.0000    0.72400   0.04600   0.62700   Biso      1.000     H          0.15977   
         H7        1.0000    0.32370   0.66900   0.04720   Biso      1.000     H          0.16183699999999998           
         H8        1.0000    0.67630   0.33100   0.95280   Biso      1.000     H          0.16183699999999998           
         O1        1.0000    0.83910   0.74472   0.35832   Biso      1.000     O          -0.5534819999999999           
         O2        1.0000    0.78220   0.58357   0.08619   Biso      1.000     O          -0.099035           
         O3        1.0000    0.08180   0.16236   0.92119   Biso      1.000     O          -0.551743           
         O4        1.0000    0.82610   0.93858   0.27660   Biso      1.000     O          -0.546976           
         O5        1.0000    0.44050   0.04914   0.88447   Biso      1.000     O          -0.440213           
         O6        1.0000    0.58180   0.33764   0.42119   Biso      1.000     O          -0.551751           
         O7        1.0000    0.32610   0.56142   0.77660   Biso      1.000     O          -0.54698  
         O8        1.0000    0.71780   0.08357   0.41381   Biso      1.000     O          -0.099048           
         O9        1.0000    0.79060   0.57258   0.51774   Biso      1.000     O          -0.452708           
         O10       1.0000    0.56480   0.31277   0.57062   Biso      1.000     O          -0.587928           
         O11       1.0000    0.06480   0.18723   0.07062   Biso      1.000     O          -0.5879310000000001           
         O12       1.0000    0.70940   0.07258   0.98226   Biso      1.000     O          -0.452714           
         O13       1.0000    0.29060   0.92742   0.01774   Biso      1.000     O          -0.452715           
         O14       1.0000    0.41820   0.66236   0.57881   Biso      1.000     O          -0.551776           
         O15       1.0000    0.93520   0.81277   0.92938   Biso      1.000     O          -0.5879489999999999           
         O16       1.0000    0.20940   0.42742   0.48226   Biso      1.000     O          -0.452705           
         O17       1.0000    0.94050   0.45086   0.38447   Biso      1.000     O          -0.44022100000000003          
         O18       1.0000    0.66090   0.24472   0.14168   Biso      1.000     O          -0.553495           
         O19       1.0000    0.16090   0.25528   0.64168   Biso      1.000     O          -0.5534899999999999           
         O20       1.0000    0.55950   0.95086   0.11553   Biso      1.000     O          -0.44021499999999997          
         O21       1.0000    0.28220   0.91643   0.58619   Biso      1.000     O          -0.09903200000000001          
         O22       1.0000    0.21780   0.41643   0.91381   Biso      1.000     O          -0.09904500000000001          
         O23       1.0000    0.67390   0.43858   0.22340   Biso      1.000     O          -0.5469729999999999           
         O24       1.0000    0.33910   0.75528   0.85832   Biso      1.000     O          -0.553493           
         O25       1.0000    0.91820   0.83764   0.07881   Biso      1.000     O          -0.551769           
         O26       1.0000    0.05950   0.54914   0.61553   Biso      1.000     O          -0.440217           
         O27       1.0000    0.17390   0.06142   0.72340   Biso      1.000     O          -0.546976           
         O28       1.0000    0.43520   0.68723   0.42938   Biso      1.000     O          -0.587954 