
##########################################################################
#               Crystallographic Information Format file
#               Produced by PyCifRW module
#
#  This is a CIF file.  CIF has been adopted by the International
#  Union of Crystallography as the standard for data archiving and
#  transmission.
#
#  For information on this file format, follow the CIF links at
#  http://www.iucr.org
##########################################################################

data_image0

_cell_length_a                          9.9134
_cell_length_b                          9.9134
_cell_length_c                          13.4046
_cell_angle_alpha                       85.3916
_cell_angle_beta                        70.1258
_cell_angle_gamma                       115.575
_symmetry_space_group_name_H-M          'P 1'
_symmetry_int_tables_number             1
loop_
  _symmetry_equiv_pos_as_xyz
         'x, y, z' 
loop_
  _atom_site_label
  _atom_site_occupancy
  _atom_site_fract_x
  _atom_site_fract_y
  _atom_site_fract_z
  _atom_site_thermal_displace_type
  _atom_site_B_iso_or_equiv
  _atom_site_type_symbol
  _atom_site_charge
         C1        1.0000    0.23080   0.08050   0.53850   Biso      1.000     C          0.636953  
         C2        1.0000    0.27560   0.65760   0.40120   Biso      1.000     C          0.659481  
         C3        1.0000    0.48670   0.95240   0.35230   Biso      1.000     C          -0.192024           
         C4        1.0000    0.17500   0.33100   0.23440   Biso      1.000     C          0.521932  
         C5        1.0000    0.11900   0.76930   0.96150   Biso      1.000     C          0.639215  
         C6        1.0000    0.31190   0.18230   0.88980   Biso      1.000     C          0.082566  
         C7        1.0000    0.10090   0.99800   0.87050   Biso      1.000     C          -0.16919  
         C8        1.0000    0.44120   0.32320   0.90120   Biso      1.000     C          0.659268  
         C9        1.0000    0.63150   0.02860   0.37050   Biso      1.000     C          -0.170197           
         C10       1.0000    0.19530   0.16100   0.85230   Biso      1.000     C          -0.195119           
         C11       1.0000    0.16540   0.93230   0.91710   Biso      1.000     C          0.071399  
         C12       1.0000    0.57210   0.20170   0.61020   Biso      1.000     C          0.083161  
         C13       1.0000    0.36850   0.97140   0.62950   Biso      1.000     C          -0.170198           
         C14       1.0000    0.72440   0.34240   0.59880   Biso      1.000     C          0.659482  
         C15       1.0000    0.51330   0.04760   0.64770   Biso      1.000     C          -0.192008           
         C16       1.0000    0.82500   0.66900   0.76560   Biso      1.000     C          0.521932  
         C17       1.0000    0.34940   0.08250   0.58290   Biso      1.000     C          0.074275  
         C18       1.0000    0.93460   0.59060   0.73440   Biso      1.000     C          0.522674  
         C19       1.0000    0.42790   0.79830   0.38980   Biso      1.000     C          0.083175  
         C20       1.0000    0.65060   0.91750   0.41710   Biso      1.000     C          0.074275  
         C21       1.0000    0.83460   0.06770   0.08290   Biso      1.000     C          0.071375  
         C22       1.0000    0.06540   0.40940   0.26560   Biso      1.000     C          0.522674  
         C23       1.0000    0.80470   0.83900   0.14770   Biso      1.000     C          -0.195134           
         C24       1.0000    0.55880   0.67680   0.09880   Biso      1.000     C          0.659267  
         C25       1.0000    0.89910   0.00200   0.12950   Biso      1.000     C          -0.169162           
         C26       1.0000    0.68810   0.81770   0.11020   Biso      1.000     C          0.082577  
         C27       1.0000    0.88100   0.23070   0.03850   Biso      1.000     C          0.639217  
         C28       1.0000    0.76920   0.91950   0.46150   Biso      1.000     C          0.636952  
         H1        1.0000    0.98830   0.05310   0.14680   Biso      1.000     H          0.158461  
         H2        1.0000    0.69990   0.13510   0.35320   Biso      1.000     H          0.157477  
         H3        1.0000    0.44140   0.99900   0.32100   Biso      1.000     H          0.150194  
         H4        1.0000    0.82000   0.76240   0.17900   Biso      1.000     H          0.150675  
         H5        1.0000    0.18000   0.23760   0.82100   Biso      1.000     H          0.150674  
         H6        1.0000    0.30010   0.86490   0.64680   Biso      1.000     H          0.157477  
         H7        1.0000    0.55860   0.00100   0.67900   Biso      1.000     H          0.150192  
         H8        1.0000    0.01170   0.94690   0.85320   Biso      1.000     H          0.158463  
         O1        1.0000    0.23920   0.33720   0.13540   Biso      1.000     O          -0.619921           
         O2        1.0000    0.98970   0.66580   0.96190   Biso      1.000     O          -0.711691           
         O3        1.0000    0.21300   0.74640   0.99600   Biso      1.000     O          -0.664056           
         O4        1.0000    0.92460   0.50230   0.81190   Biso      1.000     O          -0.594407           
         O5        1.0000    0.41910   0.43780   0.90050   Biso      1.000     O          -0.709393           
         O6        1.0000    0.29880   0.04370   0.92850   Biso      1.000     O          -0.092291           
         O7        1.0000    0.02740   0.62540   0.63540   Biso      1.000     O          -0.620218           
         O8        1.0000    0.12770   0.95160   0.53810   Biso      1.000     O          -0.712    
         O9        1.0000    0.47220   0.22730   0.57150   Biso      1.000     O          -0.09475  
         O10       1.0000    0.83830   0.31960   0.59950   Biso      1.000     O          -0.709141           
         O11       1.0000    0.81420   0.73650   0.68810   Biso      1.000     O          -0.594213           
         O12       1.0000    0.27240   0.53000   0.41120   Biso      1.000     O          -0.625738           
         O13       1.0000    0.24240   0.20900   0.50400   Biso      1.000     O          -0.662766           
         O14       1.0000    0.55880   0.31640   0.91120   Biso      1.000     O          -0.624675           
         O15       1.0000    0.52780   0.77270   0.42850   Biso      1.000     O          -0.094751           
         O16       1.0000    0.76080   0.66280   0.86460   Biso      1.000     O          -0.619921           
         O17       1.0000    0.18580   0.26350   0.31190   Biso      1.000     O          -0.594213           
         O18       1.0000    0.75760   0.79100   0.49600   Biso      1.000     O          -0.662766           
         O19       1.0000    0.87230   0.04840   0.46190   Biso      1.000     O          -0.712001           
         O20       1.0000    0.97260   0.37460   0.36460   Biso      1.000     O          -0.620218           
         O21       1.0000    0.44120   0.68360   0.08880   Biso      1.000     O          -0.624675           
         O22       1.0000    0.70120   0.95630   0.07150   Biso      1.000     O          -0.09229  
         O23       1.0000    0.58090   0.56220   0.09950   Biso      1.000     O          -0.709393           
         O24       1.0000    0.07540   0.49770   0.18810   Biso      1.000     O          -0.594407           
         O25       1.0000    0.78700   0.25360   0.00400   Biso      1.000     O          -0.664056           
         O26       1.0000    0.01030   0.33420   0.03810   Biso      1.000     O          -0.711692           
         O27       1.0000    0.72760   0.47000   0.58880   Biso      1.000     O          -0.625739           
         O28       1.0000    0.16170   0.68040   0.40050   Biso      1.000     O          -0.709141           
         Tb1       1.0000    0.95882   0.73212   0.50252   Biso      1.000     Tb          2.097133  
         Tb2       1.0000    0.73464   0.46134   0.99748   Biso      1.000     Tb          2.096911  
         Tb3       1.0000    0.04118   0.26788   0.49748   Biso      1.000     Tb          2.097133  
         Tb4       1.0000    0.26536   0.53866   0.00252   Biso      1.000     Tb          2.096911 