
##########################################################################
#               Crystallographic Information Format file
#               Produced by PyCifRW module
#
#  This is a CIF file.  CIF has been adopted by the International
#  Union of Crystallography as the standard for data archiving and
#  transmission.
#
#  For information on this file format, follow the CIF links at
#  http://www.iucr.org
##########################################################################

data_image0

_cell_length_a                          9.8846
_cell_length_b                          9.8846
_cell_length_c                          13.3526
_cell_angle_alpha                       85.3246
_cell_angle_beta                        70.1781
_cell_angle_gamma                       115.583
_symmetry_space_group_name_H-M          'P 1'
_symmetry_int_tables_number             1
loop_
  _symmetry_equiv_pos_as_xyz
         'x, y, z' 
loop_
  _atom_site_label
  _atom_site_occupancy
  _atom_site_fract_x
  _atom_site_fract_y
  _atom_site_fract_z
  _atom_site_thermal_displace_type
  _atom_site_B_iso_or_equiv
  _atom_site_type_symbol
  _atom_site_charge
         C1        1.0000    0.23020   0.08000   0.53880   Biso      1.000     C          0.633681  
         C2        1.0000    0.65110   0.91710   0.41700   Biso      1.000     C          0.072734  
         C3        1.0000    0.17490   0.33060   0.23530   Biso      1.000     C          0.524299  
         C4        1.0000    0.48750   0.95400   0.35150   Biso      1.000     C          -0.190837           
         C5        1.0000    0.27560   0.65860   0.40180   Biso      1.000     C          0.655397  
         C6        1.0000    0.63200   0.03070   0.36970   Biso      1.000     C          -0.168002           
         C7        1.0000    0.42740   0.79810   0.38990   Biso      1.000     C          0.084435  
         C8        1.0000    0.76980   0.92000   0.46120   Biso      1.000     C          0.633681  
         C9        1.0000    0.83410   0.06810   0.08300   Biso      1.000     C          0.072125  
         C10       1.0000    0.06590   0.41020   0.26470   Biso      1.000     C          0.52468   
         C11       1.0000    0.80550   0.83900   0.14850   Biso      1.000     C          -0.192247           
         C12       1.0000    0.56040   0.67740   0.09820   Biso      1.000     C          0.653044  
         C13       1.0000    0.90040   0.00170   0.13030   Biso      1.000     C          -0.165813           
         C14       1.0000    0.68800   0.81730   0.11010   Biso      1.000     C          0.083644  
         C15       1.0000    0.88120   0.23100   0.03880   Biso      1.000     C          0.635545  
         C16       1.0000    0.09960   0.99830   0.86970   Biso      1.000     C          -0.165825           
         C17       1.0000    0.43960   0.32260   0.90180   Biso      1.000     C          0.653044  
         C18       1.0000    0.19450   0.16100   0.85150   Biso      1.000     C          -0.192246           
         C19       1.0000    0.93410   0.58980   0.73530   Biso      1.000     C          0.52468   
         C20       1.0000    0.16590   0.93190   0.91700   Biso      1.000     C          0.072137  
         C21       1.0000    0.57260   0.20190   0.61010   Biso      1.000     C          0.084428  
         C22       1.0000    0.36800   0.96930   0.63030   Biso      1.000     C          -0.168016           
         C23       1.0000    0.72440   0.34140   0.59820   Biso      1.000     C          0.655397  
         C24       1.0000    0.51250   0.04600   0.64850   Biso      1.000     C          -0.190828           
         C25       1.0000    0.82510   0.66940   0.76470   Biso      1.000     C          0.524299  
         C26       1.0000    0.34890   0.08290   0.58300   Biso      1.000     C          0.072745  
         C27       1.0000    0.11880   0.76900   0.96120   Biso      1.000     C          0.635544  
         C28       1.0000    0.31200   0.18270   0.88990   Biso      1.000     C          0.083644  
         Dy1       1.0000    0.26534   0.53884   0.00262   Biso      1.000     Dy          2.097029  
         Dy2       1.0000    0.95854   0.73204   0.50262   Biso      1.000     Dy          2.096502  
         Dy3       1.0000    0.73466   0.46116   0.99738   Biso      1.000     Dy          2.097031  
         Dy4       1.0000    0.04146   0.26796   0.49738   Biso      1.000     Dy          2.096502  
         H1        1.0000    0.29990   0.86240   0.64730   Biso      1.000     H          0.158289  
         H2        1.0000    0.17970   0.23800   0.81970   Biso      1.000     H          0.151183  
         H3        1.0000    0.00970   0.94720   0.85270   Biso      1.000     H          0.156908  
         H4        1.0000    0.44230   0.00060   0.31970   Biso      1.000     H          0.15108   
         H5        1.0000    0.70010   0.13760   0.35270   Biso      1.000     H          0.158288  
         H6        1.0000    0.82030   0.76200   0.18030   Biso      1.000     H          0.151184  
         H7        1.0000    0.99030   0.05280   0.14730   Biso      1.000     H          0.156907  
         H8        1.0000    0.55770   0.99940   0.68030   Biso      1.000     H          0.151079  
         O1        1.0000    0.21280   0.74550   0.99570   Biso      1.000     O          -0.66327  
         O2        1.0000    0.92340   0.50090   0.81270   Biso      1.000     O          -0.593408           
         O3        1.0000    0.41800   0.43930   0.90150   Biso      1.000     O          -0.712845           
         O4        1.0000    0.29890   0.04400   0.92810   Biso      1.000     O          -0.085041           
         O5        1.0000    0.55850   0.31660   0.91210   Biso      1.000     O          -0.623938           
         O6        1.0000    0.84080   0.31950   0.59850   Biso      1.000     O          -0.713656           
         O7        1.0000    0.12670   0.94970   0.53860   Biso      1.000     O          -0.714106           
         O8        1.0000    0.24120   0.20850   0.50430   Biso      1.000     O          -0.661098           
         O9        1.0000    0.81360   0.73610   0.68730   Biso      1.000     O          -0.593117           
         O10       1.0000    0.98830   0.66530   0.96140   Biso      1.000     O          -0.7132   
         O11       1.0000    0.47210   0.22700   0.57190   Biso      1.000     O          -0.086459           
         O12       1.0000    0.02670   0.62430   0.63580   Biso      1.000     O          -0.624315           
         O13       1.0000    0.23990   0.33750   0.13580   Biso      1.000     O          -0.624021           
         O14       1.0000    0.75880   0.79150   0.49570   Biso      1.000     O          -0.661098           
         O15       1.0000    0.52790   0.77300   0.42810   Biso      1.000     O          -0.086459           
         O16       1.0000    0.15920   0.68050   0.40150   Biso      1.000     O          -0.713656           
         O17       1.0000    0.18640   0.26390   0.31270   Biso      1.000     O          -0.593117           
         O18       1.0000    0.87330   0.05030   0.46140   Biso      1.000     O          -0.714106           
         O19       1.0000    0.97330   0.37570   0.36420   Biso      1.000     O          -0.624315           
         O20       1.0000    0.44150   0.68340   0.08790   Biso      1.000     O          -0.623938           
         O21       1.0000    0.70110   0.95600   0.07190   Biso      1.000     O          -0.085041           
         O22       1.0000    0.58200   0.56070   0.09850   Biso      1.000     O          -0.712845           
         O23       1.0000    0.07660   0.49910   0.18730   Biso      1.000     O          -0.593408           
         O24       1.0000    0.78720   0.25450   0.00430   Biso      1.000     O          -0.66327  
         O25       1.0000    0.01170   0.33470   0.03860   Biso      1.000     O          -0.713201           
         O26       1.0000    0.72870   0.47060   0.58790   Biso      1.000     O          -0.625201           
         O27       1.0000    0.27130   0.52940   0.41210   Biso      1.000     O          -0.625201           
         O28       1.0000    0.76010   0.66250   0.86420   Biso      1.000     O          -0.624021 