
##########################################################################
#               Crystallographic Information Format file
#               Produced by PyCifRW module
#
#  This is a CIF file.  CIF has been adopted by the International
#  Union of Crystallography as the standard for data archiving and
#  transmission.
#
#  For information on this file format, follow the CIF links at
#  http://www.iucr.org
##########################################################################

data_image0

_cell_length_a                          9.8546
_cell_length_b                          9.8546
_cell_length_c                          13.3095
_cell_angle_alpha                       85.1613
_cell_angle_beta                        70.3512
_cell_angle_gamma                       115.591
_symmetry_space_group_name_H-M          'P 1'
_symmetry_int_tables_number             1
loop_
  _symmetry_equiv_pos_as_xyz
         'x, y, z' 
loop_
  _atom_site_label
  _atom_site_occupancy
  _atom_site_fract_x
  _atom_site_fract_y
  _atom_site_fract_z
  _atom_site_thermal_displace_type
  _atom_site_B_iso_or_equiv
  _atom_site_type_symbol
  _atom_site_charge
         C1        1.0000    0.22920   0.07920   0.53900   Biso      1.000     C          0.6407079999999999  
         C2        1.0000    0.42680   0.79860   0.38980   Biso      1.000     C          0.084106  
         C3        1.0000    0.63230   0.03020   0.36990   Biso      1.000     C          -0.17130599999999999          
         C4        1.0000    0.27530   0.65820   0.40150   Biso      1.000     C          0.660213  
         C5        1.0000    0.48610   0.95390   0.35200   Biso      1.000     C          -0.19021400000000002          
         C6        1.0000    0.17560   0.33140   0.23480   Biso      1.000     C          0.524356  
         C7        1.0000    0.65120   0.91820   0.41700   Biso      1.000     C          0.077783  
         C8        1.0000    0.77080   0.92080   0.46100   Biso      1.000     C          0.640705  
         C9        1.0000    0.11820   0.76820   0.96100   Biso      1.000     C          0.63873   
         C10       1.0000    0.09990   0.99780   0.86990   Biso      1.000     C          -0.16933  
         C11       1.0000    0.44030   0.32320   0.90150   Biso      1.000     C          0.6602819999999999  
         C12       1.0000    0.19410   0.16190   0.85200   Biso      1.000     C          -0.193715           
         C13       1.0000    0.93380   0.58960   0.73480   Biso      1.000     C          0.523949  
         C14       1.0000    0.16480   0.93180   0.91700   Biso      1.000     C          0.078428  
         C15       1.0000    0.72470   0.34180   0.59850   Biso      1.000     C          0.660213  
         C16       1.0000    0.31160   0.18340   0.88980   Biso      1.000     C          0.084754  
         C17       1.0000    0.83520   0.06820   0.08300   Biso      1.000     C          0.078404  
         C18       1.0000    0.06620   0.41040   0.26520   Biso      1.000     C          0.523948  
         C19       1.0000    0.80590   0.83810   0.14800   Biso      1.000     C          -0.193719           
         C20       1.0000    0.34880   0.08180   0.58300   Biso      1.000     C          0.07775800000000001           
         C21       1.0000    0.82440   0.66860   0.76520   Biso      1.000     C          0.524356  
         C22       1.0000    0.51390   0.04610   0.64800   Biso      1.000     C          -0.19022999999999998          
         C23       1.0000    0.57320   0.20140   0.61020   Biso      1.000     C          0.084118  
         C24       1.0000    0.36770   0.96980   0.63010   Biso      1.000     C          -0.17127799999999999          
         C25       1.0000    0.88180   0.23180   0.03900   Biso      1.000     C          0.638732  
         C26       1.0000    0.68840   0.81660   0.11020   Biso      1.000     C          0.084755  
         C27       1.0000    0.90010   0.00220   0.13010   Biso      1.000     C          -0.16930499999999998          
         C28       1.0000    0.55970   0.67680   0.09850   Biso      1.000     C          0.6602819999999999  
         H1        1.0000    0.29850   0.86260   0.64770   Biso      1.000     H          0.157212  
         H2        1.0000    0.17830   0.23870   0.82060   Biso      1.000     H          0.152157  
         H3        1.0000    0.44070   0.00110   0.32060   Biso      1.000     H          0.15196600000000002           
         H4        1.0000    0.70150   0.13740   0.35230   Biso      1.000     H          0.15721400000000002           
         H5        1.0000    0.82170   0.76130   0.17940   Biso      1.000     H          0.152158  
         H6        1.0000    0.98970   0.05380   0.14770   Biso      1.000     H          0.15590199999999999           
         H7        1.0000    0.55930   0.99890   0.67940   Biso      1.000     H          0.15196800000000002           
         H8        1.0000    0.01030   0.94620   0.85230   Biso      1.000     H          0.155904  
         Ho1       1.0000    0.26526   0.53879   0.00287   Biso      1.000     Ho          2.0971889999999997  
         Ho2       1.0000    0.95834   0.73187   0.50287   Biso      1.000     Ho          2.096837  
         Ho3       1.0000    0.73474   0.46121   0.99713   Biso      1.000     Ho          2.0971900000000003  
         Ho4       1.0000    0.04166   0.26813   0.49713   Biso      1.000     Ho          2.096837  
         O1        1.0000    0.47170   0.22670   0.57160   Biso      1.000     O          -0.094697           
         O2        1.0000    0.84130   0.31950   0.59780   Biso      1.000     O          -0.715672           
         O3        1.0000    0.81300   0.73560   0.68680   Biso      1.000     O          -0.5965159999999999           
         O4        1.0000    0.23990   0.20750   0.50440   Biso      1.000     O          -0.662462           
         O5        1.0000    0.12520   0.94920   0.53920   Biso      1.000     O          -0.715209           
         O6        1.0000    0.02640   0.62440   0.63540   Biso      1.000     O          -0.6201399999999999           
         O7        1.0000    0.55850   0.31710   0.91320   Biso      1.000     O          -0.626324           
         O8        1.0000    0.29830   0.04330   0.92840   Biso      1.000     O          -0.092581           
         O9        1.0000    0.41730   0.43910   0.90220   Biso      1.000     O          -0.7165279999999999           
         O10       1.0000    0.92240   0.49980   0.81320   Biso      1.000     O          -0.596554           
         O11       1.0000    0.21190   0.74430   0.99560   Biso      1.000     O          -0.6626449999999999           
         O12       1.0000    0.98840   0.66440   0.96080   Biso      1.000     O          -0.713703           
         O13       1.0000    0.24020   0.33820   0.13540   Biso      1.000     O          -0.620328           
         O14       1.0000    0.26970   0.52830   0.41320   Biso      1.000     O          -0.626649           
         O15       1.0000    0.52830   0.77330   0.42840   Biso      1.000     O          -0.094698           
         O16       1.0000    0.15870   0.68050   0.40220   Biso      1.000     O          -0.715672           
         O17       1.0000    0.18700   0.26440   0.31320   Biso      1.000     O          -0.5965159999999999           
         O18       1.0000    0.76010   0.79250   0.49560   Biso      1.000     O          -0.662462           
         O19       1.0000    0.87480   0.05080   0.46080   Biso      1.000     O          -0.715208           
         O20       1.0000    0.97360   0.37560   0.36460   Biso      1.000     O          -0.6201399999999999           
         O21       1.0000    0.44150   0.68290   0.08680   Biso      1.000     O          -0.626324           
         O22       1.0000    0.70170   0.95670   0.07160   Biso      1.000     O          -0.092579           
         O23       1.0000    0.58270   0.56090   0.09780   Biso      1.000     O          -0.7165279999999999           
         O24       1.0000    0.07760   0.50020   0.18680   Biso      1.000     O          -0.596554           
         O25       1.0000    0.78810   0.25570   0.00440   Biso      1.000     O          -0.6626449999999999           
         O26       1.0000    0.01160   0.33560   0.03920   Biso      1.000     O          -0.713704           
         O27       1.0000    0.73030   0.47170   0.58680   Biso      1.000     O          -0.626649           
         O28       1.0000    0.75980   0.66180   0.86460   Biso      1.000     O          -0.620328 