
##########################################################################
#               Crystallographic Information Format file
#               Produced by PyCifRW module
#
#  This is a CIF file.  CIF has been adopted by the International
#  Union of Crystallography as the standard for data archiving and
#  transmission.
#
#  For information on this file format, follow the CIF links at
#  http://www.iucr.org
##########################################################################

data_image0

_cell_length_a                          9.8184
_cell_length_b                          9.8184
_cell_length_c                          13.2616
_cell_angle_alpha                       84.7887
_cell_angle_beta                        70.7729
_cell_angle_gamma                       115.627
_symmetry_space_group_name_H-M          'P 1'
_symmetry_int_tables_number             1
loop_
  _symmetry_equiv_pos_as_xyz
         'x, y, z' 
loop_
  _atom_site_label
  _atom_site_occupancy
  _atom_site_fract_x
  _atom_site_fract_y
  _atom_site_fract_z
  _atom_site_thermal_displace_type
  _atom_site_B_iso_or_equiv
  _atom_site_type_symbol
  _atom_site_charge
         C1        1.0000    0.22630   0.07610   0.53980   Biso      1.000     C          0.570504  
         C2        1.0000    0.27280   0.65850   0.40390   Biso      1.000     C          0.578633  
         C3        1.0000    0.48510   0.95540   0.35190   Biso      1.000     C          -0.172079           
         C4        1.0000    0.17810   0.33330   0.23500   Biso      1.000     C          0.502261  
         C5        1.0000    0.11590   0.76610   0.96020   Biso      1.000     C          0.566565  
         C6        1.0000    0.31070   0.18400   0.89050   Biso      1.000     C          0.126782  
         C7        1.0000    0.09770   0.99850   0.86880   Biso      1.000     C          -0.175219           
         C8        1.0000    0.43760   0.32330   0.90390   Biso      1.000     C          0.579446  
         C9        1.0000    0.63270   0.03350   0.36880   Biso      1.000     C          -0.172406           
         C10       1.0000    0.19270   0.16300   0.85190   Biso      1.000     C          -0.170566           
         C11       1.0000    0.16410   0.93090   0.91620   Biso      1.000     C          0.120649  
         C12       1.0000    0.57450   0.20120   0.60950   Biso      1.000     C          0.130106  
         C13       1.0000    0.36730   0.96650   0.63120   Biso      1.000     C          -0.172405           
         C14       1.0000    0.72720   0.34150   0.59610   Biso      1.000     C          0.578634  
         C15       1.0000    0.51490   0.04460   0.64810   Biso      1.000     C          -0.17207  
         C16       1.0000    0.82190   0.66670   0.76500   Biso      1.000     C          0.502264  
         C17       1.0000    0.34710   0.08030   0.58380   Biso      1.000     C          0.117603  
         C18       1.0000    0.93170   0.58690   0.73500   Biso      1.000     C          0.5023810000000001  
         C19       1.0000    0.42550   0.79880   0.39050   Biso      1.000     C          0.130115  
         C20       1.0000    0.65290   0.91970   0.41620   Biso      1.000     C          0.11760699999999999           
         C21       1.0000    0.83590   0.06910   0.08380   Biso      1.000     C          0.12062300000000001           
         C22       1.0000    0.06830   0.41310   0.26500   Biso      1.000     C          0.502378  
         C23       1.0000    0.80730   0.83700   0.14810   Biso      1.000     C          -0.170577           
         C24       1.0000    0.56240   0.67670   0.09610   Biso      1.000     C          0.579469  
         C25       1.0000    0.90230   0.00150   0.13120   Biso      1.000     C          -0.175204           
         C26       1.0000    0.68930   0.81600   0.10950   Biso      1.000     C          0.126773  
         C27       1.0000    0.88410   0.23390   0.03980   Biso      1.000     C          0.566565  
         C28       1.0000    0.77370   0.92390   0.46020   Biso      1.000     C          0.5705    
         H1        1.0000    0.99210   0.05240   0.14930   Biso      1.000     H          0.160624  
         H2        1.0000    0.70170   0.14140   0.35070   Biso      1.000     H          0.15951400000000002           
         H3        1.0000    0.43840   0.00210   0.32070   Biso      1.000     H          0.16101300000000002           
         H4        1.0000    0.82280   0.75910   0.17930   Biso      1.000     H          0.161064  
         H5        1.0000    0.17720   0.24090   0.82070   Biso      1.000     H          0.16105899999999998           
         H6        1.0000    0.29830   0.85860   0.64930   Biso      1.000     H          0.15951500000000002           
         H7        1.0000    0.56160   0.99790   0.67930   Biso      1.000     H          0.16101300000000002           
         H8        1.0000    0.00790   0.94760   0.85070   Biso      1.000     H          0.16062200000000001           
         O1        1.0000    0.24220   0.33990   0.13590   Biso      1.000     O          -0.45408699999999996          
         O2        1.0000    0.98570   0.66180   0.95970   Biso      1.000     O          -0.5921890000000001           
         O3        1.0000    0.21190   0.74150   0.99400   Biso      1.000     O          -0.548189           
         O4        1.0000    0.91960   0.49660   0.81480   Biso      1.000     O          -0.440312           
         O5        1.0000    0.41430   0.43940   0.90550   Biso      1.000     O          -0.561854           
         O6        1.0000    0.29760   0.04270   0.92890   Biso      1.000     O          -0.100826           
         O7        1.0000    0.02420   0.62190   0.63590   Biso      1.000     O          -0.45413000000000003          
         O8        1.0000    0.12150   0.94540   0.54030   Biso      1.000     O          -0.593071           
         O9        1.0000    0.47160   0.22650   0.57110   Biso      1.000     O          -0.101813           
         O10       1.0000    0.84490   0.31980   0.59450   Biso      1.000     O          -0.562549           
         O11       1.0000    0.81140   0.73440   0.68520   Biso      1.000     O          -0.439284           
         O12       1.0000    0.26810   0.52770   0.41400   Biso      1.000     O          -0.5310560000000001           
         O13       1.0000    0.23550   0.20590   0.50600   Biso      1.000     O          -0.549752           
         O14       1.0000    0.55830   0.31790   0.91400   Biso      1.000     O          -0.53158  
         O15       1.0000    0.52840   0.77350   0.42890   Biso      1.000     O          -0.101816           
         O16       1.0000    0.75780   0.66010   0.86410   Biso      1.000     O          -0.45408999999999994          
         O17       1.0000    0.18860   0.26560   0.31480   Biso      1.000     O          -0.43928199999999995          
         O18       1.0000    0.76450   0.79410   0.49400   Biso      1.000     O          -0.549752           
         O19       1.0000    0.87850   0.05460   0.45970   Biso      1.000     O          -0.59307  
         O20       1.0000    0.97580   0.37810   0.36410   Biso      1.000     O          -0.454129           
         O21       1.0000    0.44170   0.68210   0.08600   Biso      1.000     O          -0.531604           
         O22       1.0000    0.70240   0.95730   0.07110   Biso      1.000     O          -0.100813           
         O23       1.0000    0.58570   0.56060   0.09450   Biso      1.000     O          -0.56187  
         O24       1.0000    0.08040   0.50340   0.18520   Biso      1.000     O          -0.440309           
         O25       1.0000    0.78810   0.25850   0.00600   Biso      1.000     O          -0.548185           
         O26       1.0000    0.01430   0.33820   0.04030   Biso      1.000     O          -0.592183           
         O27       1.0000    0.73190   0.47230   0.58600   Biso      1.000     O          -0.5310590000000001           
         O28       1.0000    0.15510   0.68020   0.40550   Biso      1.000     O          -0.562545           
         Yb1       1.0000    0.95771   0.73154   0.50349   Biso      1.000     Yb          1.356806  
         Yb2       1.0000    0.73503   0.46120   0.99651   Biso      1.000     Yb          1.3570149999999999  
         Yb3       1.0000    0.04229   0.26846   0.49651   Biso      1.000     Yb          1.356808  
         Yb4       1.0000    0.26497   0.53880   0.00349   Biso      1.000     Yb          1.357016 