
##########################################################################
#               Crystallographic Information Format file
#               Produced by PyCifRW module
#
#  This is a CIF file.  CIF has been adopted by the International
#  Union of Crystallography as the standard for data archiving and
#  transmission.
#
#  For information on this file format, follow the CIF links at
#  http://www.iucr.org
##########################################################################

data_image0

_cell_length_a                          18.3014
_cell_length_b                          18.3014
_cell_length_c                          18.3014
_cell_angle_alpha                       60
_cell_angle_beta                        60
_cell_angle_gamma                       60
_symmetry_space_group_name_H-M          'P 1'
_symmetry_int_tables_number             1
loop_
  _symmetry_equiv_pos_as_xyz
         'x, y, z' 
loop_
  _atom_site_label
  _atom_site_occupancy
  _atom_site_fract_x
  _atom_site_fract_y
  _atom_site_fract_z
  _atom_site_thermal_displace_type
  _atom_site_B_iso_or_equiv
  _atom_site_type_symbol
  _atom_site_charge
         C1        1.0000    0.59200   0.97360   0.46080   Biso      1.000     C          -0.088135           
         C2        1.0000    0.44570   0.05430   0.44570   Biso      1.000     C          -0.032812           
         C3        1.0000    0.38950   0.11050   0.38950   Biso      1.000     C          0.612982  
         C4        1.0000    0.05430   0.44570   0.05430   Biso      1.000     C          -0.032812           
         C5        1.0000    0.11050   0.38950   0.11050   Biso      1.000     C          0.612982  
         C6        1.0000    0.97360   0.59200   0.97360   Biso      1.000     C          -0.088135           
         C7        1.0000    0.46080   0.97360   0.59200   Biso      1.000     C          -0.088134           
         C8        1.0000    0.97360   0.46080   0.97360   Biso      1.000     C          -0.088134           
         C9        1.0000    0.11050   0.11050   0.38950   Biso      1.000     C          0.612982  
         C10       1.0000    0.46080   0.59200   0.97360   Biso      1.000     C          -0.088134           
         C11       1.0000    0.59200   0.46080   0.97360   Biso      1.000     C          -0.088134           
         C12       1.0000    0.97360   0.97360   0.59200   Biso      1.000     C          -0.088135           
         C13       1.0000    0.97360   0.59200   0.46080   Biso      1.000     C          -0.088134           
         C14       1.0000    0.59200   0.97360   0.97360   Biso      1.000     C          -0.088135           
         C15       1.0000    0.97360   0.46080   0.59200   Biso      1.000     C          -0.088134           
         C16       1.0000    0.46080   0.97360   0.97360   Biso      1.000     C          -0.088134           
         C17       1.0000    0.02640   0.53920   0.40800   Biso      1.000     C          -0.088115           
         C18       1.0000    0.97360   0.97360   0.46080   Biso      1.000     C          -0.088134           
         C19       1.0000    0.53920   0.02640   0.02640   Biso      1.000     C          -0.088115           
         C20       1.0000    0.05430   0.05430   0.44570   Biso      1.000     C          -0.032812           
         C21       1.0000    0.44570   0.44570   0.05430   Biso      1.000     C          -0.032812           
         C22       1.0000    0.94570   0.55430   0.94570   Biso      1.000     C          -0.032807           
         C23       1.0000    0.88950   0.61050   0.88950   Biso      1.000     C          0.612982  
         C24       1.0000    0.55430   0.94570   0.55430   Biso      1.000     C          -0.032807           
         C25       1.0000    0.61050   0.88950   0.61050   Biso      1.000     C          0.612982  
         C26       1.0000    0.55430   0.55430   0.94570   Biso      1.000     C          -0.032807           
         C27       1.0000    0.61050   0.61050   0.88950   Biso      1.000     C          0.612982  
         C28       1.0000    0.94570   0.94570   0.55430   Biso      1.000     C          -0.032807           
         C29       1.0000    0.38950   0.38950   0.11050   Biso      1.000     C          0.612982  
         C30       1.0000    0.88950   0.88950   0.61050   Biso      1.000     C          0.612982  
         C31       1.0000    0.88950   0.61050   0.61050   Biso      1.000     C          0.612982  
         C32       1.0000    0.55430   0.94570   0.94570   Biso      1.000     C          -0.032807           
         C33       1.0000    0.61050   0.88950   0.88950   Biso      1.000     C          0.612982  
         C34       1.0000    0.44570   0.05430   0.05430   Biso      1.000     C          -0.032812           
         C35       1.0000    0.38950   0.11050   0.11050   Biso      1.000     C          0.612982  
         C36       1.0000    0.05430   0.44570   0.44570   Biso      1.000     C          -0.032812           
         C37       1.0000    0.11050   0.38950   0.38950   Biso      1.000     C          0.612982  
         C38       1.0000    0.94570   0.55430   0.55430   Biso      1.000     C          -0.032807           
         C39       1.0000    0.02640   0.40800   0.53920   Biso      1.000     C          -0.088115           
         C40       1.0000    0.40800   0.02640   0.02640   Biso      1.000     C          -0.088115           
         C41       1.0000    0.02640   0.02640   0.53920   Biso      1.000     C          -0.088114           
         C42       1.0000    0.53920   0.40800   0.02640   Biso      1.000     C          -0.088114           
         C43       1.0000    0.02640   0.02640   0.40800   Biso      1.000     C          -0.088115           
         C44       1.0000    0.40800   0.02640   0.53920   Biso      1.000     C          -0.088114           
         C45       1.0000    0.02640   0.40800   0.02640   Biso      1.000     C          -0.088115           
         C46       1.0000    0.53920   0.02640   0.40800   Biso      1.000     C          -0.088114           
         C47       1.0000    0.02640   0.53920   0.02640   Biso      1.000     C          -0.088114           
         C48       1.0000    0.40800   0.53920   0.02640   Biso      1.000     C          -0.088114           
         H1        1.0000    0.04850   0.56570   0.33730   Biso      1.000     H          0.114092  
         H2        1.0000    0.04850   0.33730   0.56570   Biso      1.000     H          0.114092  
         H3        1.0000    0.33730   0.56570   0.04850   Biso      1.000     H          0.114092  
         H4        1.0000    0.04850   0.04850   0.56570   Biso      1.000     H          0.114091  
         H5        1.0000    0.04850   0.33730   0.04850   Biso      1.000     H          0.114092  
         H6        1.0000    0.04850   0.04850   0.33730   Biso      1.000     H          0.114092  
         H7        1.0000    0.33730   0.04850   0.56570   Biso      1.000     H          0.114092  
         H8        1.0000    0.33730   0.04850   0.04850   Biso      1.000     H          0.114092  
         H9        1.0000    0.56570   0.04850   0.33730   Biso      1.000     H          0.114092  
         H10       1.0000    0.04850   0.56570   0.04850   Biso      1.000     H          0.114091  
         H11       1.0000    0.56570   0.33730   0.04850   Biso      1.000     H          0.114092  
         H12       1.0000    0.43430   0.95150   0.95150   Biso      1.000     H          0.114093  
         H13       1.0000    0.56570   0.04850   0.04850   Biso      1.000     H          0.114091  
         H14       1.0000    0.66270   0.95150   0.95150   Biso      1.000     H          0.114093  
         H15       1.0000    0.95150   0.43430   0.66270   Biso      1.000     H          0.114093  
         H16       1.0000    0.95150   0.66270   0.95150   Biso      1.000     H          0.114093  
         H17       1.0000    0.43430   0.95150   0.66270   Biso      1.000     H          0.114093  
         H18       1.0000    0.66270   0.95150   0.43430   Biso      1.000     H          0.114093  
         H19       1.0000    0.95150   0.43430   0.95150   Biso      1.000     H          0.114093  
         H20       1.0000    0.95150   0.95150   0.43430   Biso      1.000     H          0.114093  
         H21       1.0000    0.66270   0.43430   0.95150   Biso      1.000     H          0.114093  
         H22       1.0000    0.95150   0.95150   0.66270   Biso      1.000     H          0.114093  
         H23       1.0000    0.95150   0.66270   0.43430   Biso      1.000     H          0.114093  
         H24       1.0000    0.43430   0.66270   0.95150   Biso      1.000     H          0.114093  
         O1        1.0000    0.13330   0.30510   0.42830   Biso      1.000     O          -0.553082           
         O2        1.0000    0.86670   0.57170   0.69490   Biso      1.000     O          -0.553082           
         O3        1.0000    0.42830   0.13330   0.13330   Biso      1.000     O          -0.553082           
         O4        1.0000    0.13330   0.42830   0.30510   Biso      1.000     O          -0.553082           
         O5        1.0000    0.30510   0.13330   0.13330   Biso      1.000     O          -0.553082           
         O6        1.0000    0.57170   0.86670   0.86670   Biso      1.000     O          -0.553082           
         O7        1.0000    0.86670   0.57170   0.86670   Biso      1.000     O          -0.553082           
         O8        1.0000    0.86670   0.86670   0.69490   Biso      1.000     O          -0.553082           
         O9        1.0000    0.57170   0.69490   0.86670   Biso      1.000     O          -0.553082           
         O10       1.0000    0.86670   0.86670   0.57170   Biso      1.000     O          -0.553082           
         O11       1.0000    0.69490   0.57170   0.86670   Biso      1.000     O          -0.553082           
         O12       1.0000    0.86670   0.69490   0.57170   Biso      1.000     O          -0.553082           
         O13       1.0000    0.30510   0.42830   0.13330   Biso      1.000     O          -0.553082           
         O14       1.0000    0.69490   0.86670   0.86670   Biso      1.000     O          -0.553082           
         O15       1.0000    0.69490   0.86670   0.57170   Biso      1.000     O          -0.553082           
         O16       1.0000    0.13330   0.13330   0.42830   Biso      1.000     O          -0.553082           
         O17       1.0000    0.86670   0.69490   0.86670   Biso      1.000     O          -0.553082           
         O18       1.0000    0.13330   0.13330   0.30510   Biso      1.000     O          -0.553082           
         O19       1.0000    0.30510   0.13330   0.42830   Biso      1.000     O          -0.553082           
         O20       1.0000    0.13330   0.30510   0.13330   Biso      1.000     O          -0.553082           
         O21       1.0000    0.42830   0.13330   0.30510   Biso      1.000     O          -0.553082           
         O22       1.0000    0.13330   0.42830   0.13330   Biso      1.000     O          -0.553082           
         O23       1.0000    0.75000   0.75000   0.75000   Biso      1.000     O          -1.037472           
         O24       1.0000    0.25000   0.25000   0.25000   Biso      1.000     O          -1.037473           
         O25       1.0000    0.57170   0.86670   0.69490   Biso      1.000     O          -0.553082           
         O26       1.0000    0.42830   0.30510   0.13330   Biso      1.000     O          -0.553082           
         Zn1       1.0000    0.38080   0.20640   0.20640   Biso      1.000     Zn          0.970452  
         Zn2       1.0000    0.20640   0.20640   0.20640   Biso      1.000     Zn          0.970452  
         Zn3       1.0000    0.20640   0.20640   0.38080   Biso      1.000     Zn          0.970451  
         Zn4       1.0000    0.79360   0.79360   0.61920   Biso      1.000     Zn          0.970451  
         Zn5       1.0000    0.79360   0.61920   0.79360   Biso      1.000     Zn          0.970451  
         Zn6       1.0000    0.79360   0.79360   0.79360   Biso      1.000     Zn          0.970451  
         Zn7       1.0000    0.61920   0.79360   0.79360   Biso      1.000     Zn          0.970451  
         Zn8       1.0000    0.20640   0.38080   0.20640   Biso      1.000     Zn          0.970452 