
##########################################################################
#               Crystallographic Information Format file
#               Produced by PyCifRW module
#
#  This is a CIF file.  CIF has been adopted by the International
#  Union of Crystallography as the standard for data archiving and
#  transmission.
#
#  For information on this file format, follow the CIF links at
#  http://www.iucr.org
##########################################################################

data_image0

_cell_length_a                          11.3373
_cell_length_b                          11.3373
_cell_length_c                          30.746
_cell_angle_alpha                       90
_cell_angle_beta                        90
_cell_angle_gamma                       118.543
_symmetry_space_group_name_H-M          'P 1'
_symmetry_int_tables_number             1
loop_
  _symmetry_equiv_pos_as_xyz
         'x, y, z' 
loop_
  _atom_site_label
  _atom_site_occupancy
  _atom_site_fract_x
  _atom_site_fract_y
  _atom_site_fract_z
  _atom_site_thermal_displace_type
  _atom_site_B_iso_or_equiv
  _atom_site_type_symbol
  _atom_site_charge
         C1        1.0000    0.14680   0.74300   0.65120   Biso      1.000     C          -0.004815           
         C2        1.0000    0.66820   0.68820   0.42490   Biso      1.000     C          0.111994  
         C3        1.0000    0.64840   0.78380   0.44790   Biso      1.000     C          -0.183729           
         C4        1.0000    0.52470   0.78070   0.44790   Biso      1.000     C          0.094653  
         C5        1.0000    0.79970   0.68730   0.42456   Biso      1.000     C          0.115182  
         C6        1.0000    0.20560   0.74520   0.77403   Biso      1.000     C          -0.113034           
         C7        1.0000    0.91390   0.79310   0.44280   Biso      1.000     C          -0.178378           
         C8        1.0000    0.03250   0.78710   0.44290   Biso      1.000     C          0.095254  
         C9        1.0000    0.93600   0.58440   0.40880   Biso      1.000     C          0.111319  
         C10       1.0000    0.81350   0.58170   0.40770   Biso      1.000     C          -0.162326           
         C11       1.0000    0.05340   0.67300   0.83878   Biso      1.000     C          0.564636  
         C12       1.0000    0.07610   0.69210   0.79019   Biso      1.000     C          0.026686  
         C13       1.0000    0.96890   0.65490   0.76249   Biso      1.000     C          -0.112905           
         C14       1.0000    0.55810   0.59610   0.40120   Biso      1.000     C          -0.155235           
         C15       1.0000    0.99370   0.67110   0.71738   Biso      1.000     C          0.040323  
         C16       1.0000    0.31350   0.08170   0.09230   Biso      1.000     C          -0.162333           
         C17       1.0000    0.43600   0.08440   0.09120   Biso      1.000     C          0.111324  
         C18       1.0000    0.24520   0.70560   0.27403   Biso      1.000     C          -0.113034           
         C19       1.0000    0.41390   0.29310   0.05720   Biso      1.000     C          -0.178379           
         C20       1.0000    0.29970   0.18730   0.07544   Biso      1.000     C          0.115184  
         C21       1.0000    0.02470   0.28070   0.05210   Biso      1.000     C          0.094652  
         C22       1.0000    0.14840   0.28380   0.05210   Biso      1.000     C          -0.183729           
         C23       1.0000    0.16820   0.18820   0.07510   Biso      1.000     C          0.111995  
         C24       1.0000    0.05810   0.09610   0.09880   Biso      1.000     C          -0.155235           
         C25       1.0000    0.94000   0.09920   0.09730   Biso      1.000     C          0.112377  
         C26       1.0000    0.81420   0.26720   0.48446   Biso      1.000     C          0.558512  
         C27       1.0000    0.65290   0.16970   0.37380   Biso      1.000     C          0.039978  
         C28       1.0000    0.12260   0.72360   0.69947   Biso      1.000     C          0.015622  
         C29       1.0000    0.67150   0.20290   0.41737   Biso      1.000     C          -0.150587           
         C30       1.0000    0.44000   0.59920   0.40270   Biso      1.000     C          0.112377  
         C31       1.0000    0.15290   0.66970   0.12620   Biso      1.000     C          0.039978  
         C32       1.0000    0.25870   0.72570   0.22980   Biso      1.000     C          0.035821  
         C33       1.0000    0.22360   0.62260   0.19947   Biso      1.000     C          0.015622  
         C34       1.0000    0.17110   0.49370   0.21738   Biso      1.000     C          0.040323  
         C35       1.0000    0.15490   0.46890   0.26249   Biso      1.000     C          -0.112906           
         C36       1.0000    0.19210   0.57610   0.29019   Biso      1.000     C          0.026687  
         C37       1.0000    0.17300   0.55340   0.33878   Biso      1.000     C          0.564636  
         C38       1.0000    0.16070   0.85410   0.62954   Biso      1.000     C          0.050833  
         C39       1.0000    0.19610   0.87770   0.58526   Biso      1.000     C          -0.13283  
         C40       1.0000    0.35410   0.66070   0.12954   Biso      1.000     C          0.050826  
         C41       1.0000    0.37770   0.69610   0.08526   Biso      1.000     C          -0.132829           
         C42       1.0000    0.22110   0.78730   0.56192   Biso      1.000     C          0.022689  
         C43       1.0000    0.20290   0.67150   0.58263   Biso      1.000     C          -0.15059  
         C44       1.0000    0.31420   0.76720   0.01554   Biso      1.000     C          0.558512  
         C45       1.0000    0.16970   0.65290   0.62620   Biso      1.000     C          0.039982  
         C46       1.0000    0.09920   0.94000   0.90270   Biso      1.000     C          0.112363  
         C47       1.0000    0.09610   0.05810   0.90120   Biso      1.000     C          -0.155223           
         C48       1.0000    0.18820   0.16820   0.92490   Biso      1.000     C          0.111993  
         C49       1.0000    0.28380   0.14840   0.94790   Biso      1.000     C          -0.183729           
         C50       1.0000    0.28070   0.02470   0.94790   Biso      1.000     C          0.094653  
         C51       1.0000    0.18730   0.29970   0.92456   Biso      1.000     C          0.115182  
         C52       1.0000    0.29310   0.41390   0.94280   Biso      1.000     C          -0.178378           
         C53       1.0000    0.28730   0.72110   0.06192   Biso      1.000     C          0.022688  
         C54       1.0000    0.28710   0.53250   0.94290   Biso      1.000     C          0.095254  
         C55       1.0000    0.08440   0.43600   0.90880   Biso      1.000     C          0.11132   
         C56       1.0000    0.08170   0.31350   0.90770   Biso      1.000     C          -0.162327           
         C57       1.0000    0.17150   0.70290   0.08263   Biso      1.000     C          -0.150586           
         C58       1.0000    0.26720   0.81420   0.51554   Biso      1.000     C          0.558512  
         C59       1.0000    0.78730   0.22110   0.43808   Biso      1.000     C          0.022688  
         C60       1.0000    0.53250   0.28710   0.05710   Biso      1.000     C          0.095254  
         C61       1.0000    0.85410   0.16070   0.37046   Biso      1.000     C          0.050826  
         C62       1.0000    0.66970   0.15290   0.87380   Biso      1.000     C          0.039978  
         C63       1.0000    0.70290   0.17150   0.91737   Biso      1.000     C          -0.150587           
         C64       1.0000    0.72110   0.28730   0.93808   Biso      1.000     C          0.022688  
         C65       1.0000    0.69610   0.37770   0.91474   Biso      1.000     C          -0.132827           
         C66       1.0000    0.66070   0.35410   0.87046   Biso      1.000     C          0.050826  
         C67       1.0000    0.64680   0.24300   0.84880   Biso      1.000     C          -0.004808           
         C68       1.0000    0.70560   0.24520   0.72597   Biso      1.000     C          -0.113034           
         C69       1.0000    0.72570   0.25870   0.77020   Biso      1.000     C          0.035821  
         C70       1.0000    0.62260   0.22360   0.80053   Biso      1.000     C          0.015621  
         C71       1.0000    0.49370   0.17110   0.78262   Biso      1.000     C          0.040323  
         C72       1.0000    0.46890   0.15490   0.73751   Biso      1.000     C          -0.112906           
         C73       1.0000    0.57610   0.19210   0.70981   Biso      1.000     C          0.026687  
         C74       1.0000    0.55340   0.17300   0.66122   Biso      1.000     C          0.564636  
         C75       1.0000    0.87770   0.19610   0.41474   Biso      1.000     C          -0.132827           
         C76       1.0000    0.22570   0.75870   0.72980   Biso      1.000     C          0.035821  
         C77       1.0000    0.76720   0.31420   0.98446   Biso      1.000     C          0.558512  
         C78       1.0000    0.59920   0.44000   0.59730   Biso      1.000     C          0.112363  
         C79       1.0000    0.24300   0.64680   0.15120   Biso      1.000     C          -0.004809           
         C80       1.0000    0.68820   0.66820   0.57510   Biso      1.000     C          0.111993  
         C81       1.0000    0.74520   0.20560   0.22597   Biso      1.000     C          -0.113034           
         C82       1.0000    0.59610   0.55810   0.59880   Biso      1.000     C          -0.155222           
         C83       1.0000    0.74300   0.14680   0.34880   Biso      1.000     C          -0.004809           
         C84       1.0000    0.75870   0.22570   0.27020   Biso      1.000     C          0.035821  
         C85       1.0000    0.67110   0.99370   0.28262   Biso      1.000     C          0.040323  
         C86       1.0000    0.65490   0.96890   0.23751   Biso      1.000     C          -0.112906           
         C87       1.0000    0.69210   0.07610   0.20981   Biso      1.000     C          0.026687  
         C88       1.0000    0.72360   0.12260   0.30053   Biso      1.000     C          0.015622  
         C89       1.0000    0.58170   0.81350   0.59230   Biso      1.000     C          -0.162333           
         C90       1.0000    0.58440   0.93600   0.59120   Biso      1.000     C          0.111326  
         C91       1.0000    0.78710   0.03250   0.55710   Biso      1.000     C          0.095251  
         C92       1.0000    0.79310   0.91390   0.55720   Biso      1.000     C          -0.178376           
         C93       1.0000    0.68730   0.79970   0.57544   Biso      1.000     C          0.115184  
         C94       1.0000    0.78380   0.64840   0.55210   Biso      1.000     C          -0.183729           
         C95       1.0000    0.67300   0.05340   0.16122   Biso      1.000     C          0.564636  
         C96       1.0000    0.78070   0.52470   0.55210   Biso      1.000     C          0.094653  
         H1        1.0000    0.21300   0.60640   0.56720   Biso      1.000     H          0.149097  
         H2        1.0000    0.20260   0.95380   0.57170   Biso      1.000     H          0.144281  
         H3        1.0000    0.27800   0.77140   0.79290   Biso      1.000     H          0.146752  
         H4        1.0000    0.73970   0.50850   0.39550   Biso      1.000     H          0.136344  
         H5        1.0000    0.94300   0.51300   0.39650   Biso      1.000     H          0.102308  
         H6        1.0000    0.10790   0.85890   0.45490   Biso      1.000     H          0.105732  
         H7        1.0000    0.03570   0.86870   0.88640   Biso      1.000     H          0.106875  
         H8        1.0000    0.88200   0.62000   0.77330   Biso      1.000     H          0.144961  
         H9        1.0000    0.03190   0.06550   0.88430   Biso      1.000     H          0.1419    
         H10       1.0000    0.53570   0.36870   0.61360   Biso      1.000     H          0.106875  
         H11       1.0000    0.34530   0.01470   0.96380   Biso      1.000     H          0.104443  
         H12       1.0000    0.36660   0.41020   0.95470   Biso      1.000     H          0.134187  
         H13       1.0000    0.35890   0.60790   0.95490   Biso      1.000     H          0.105732  
         H14       1.0000    0.01300   0.44300   0.89650   Biso      1.000     H          0.102308  
         H15       1.0000    0.00850   0.23970   0.89550   Biso      1.000     H          0.136344  
         H16       1.0000    0.91020   0.86660   0.45470   Biso      1.000     H          0.134187  
         H17       1.0000    0.71300   0.10640   0.93280   Biso      1.000     H          0.149097  
         H18       1.0000    0.70260   0.45380   0.92830   Biso      1.000     H          0.144281  
         H19       1.0000    0.77800   0.27140   0.70710   Biso      1.000     H          0.146752  
         H20       1.0000    0.38200   0.12000   0.72670   Biso      1.000     H          0.144961  
         H21       1.0000    0.35060   0.21940   0.96330   Biso      1.000     H          0.118786  
         H22       1.0000    0.51470   0.84530   0.46380   Biso      1.000     H          0.104443  
         H23       1.0000    0.53190   0.56550   0.61570   Biso      1.000     H          0.1419    
         H24       1.0000    0.56550   0.53190   0.38430   Biso      1.000     H          0.1419    
         H25       1.0000    0.23970   0.00850   0.10450   Biso      1.000     H          0.136344  
         H26       1.0000    0.44300   0.01300   0.10350   Biso      1.000     H          0.102308  
         H27       1.0000    0.60790   0.35890   0.04510   Biso      1.000     H          0.105732  
         H28       1.0000    0.41020   0.36660   0.04530   Biso      1.000     H          0.134187  
         H29       1.0000    0.01470   0.34530   0.03620   Biso      1.000     H          0.104443  
         H30       1.0000    0.21940   0.35060   0.03670   Biso      1.000     H          0.118786  
         H31       1.0000    0.06550   0.03190   0.11570   Biso      1.000     H          0.1419    
         H32       1.0000    0.86870   0.03570   0.11360   Biso      1.000     H          0.106874  
         H33       1.0000    0.95380   0.20260   0.42830   Biso      1.000     H          0.144281  
         H34       1.0000    0.77140   0.27800   0.20710   Biso      1.000     H          0.146752  
         H35       1.0000    0.71940   0.85060   0.46330   Biso      1.000     H          0.118786  
         H36       1.0000    0.62000   0.88200   0.22670   Biso      1.000     H          0.144961  
         H37       1.0000    0.51300   0.94300   0.60350   Biso      1.000     H          0.102308  
         H38       1.0000    0.85890   0.10790   0.54510   Biso      1.000     H          0.105732  
         H39       1.0000    0.86660   0.91020   0.54530   Biso      1.000     H          0.134187  
         H40       1.0000    0.84530   0.51470   0.53620   Biso      1.000     H          0.104443  
         H41       1.0000    0.85060   0.71940   0.53670   Biso      1.000     H          0.118786  
         H42       1.0000    0.12000   0.38200   0.27330   Biso      1.000     H          0.144961  
         H43       1.0000    0.27140   0.77800   0.29290   Biso      1.000     H          0.146752  
         H44       1.0000    0.45380   0.70260   0.07170   Biso      1.000     H          0.144281  
         H45       1.0000    0.10640   0.71300   0.06720   Biso      1.000     H          0.149097  
         H46       1.0000    0.36870   0.53570   0.38640   Biso      1.000     H          0.106874  
         H47       1.0000    0.50850   0.73970   0.60450   Biso      1.000     H          0.136344  
         H48       1.0000    0.60640   0.21300   0.43280   Biso      1.000     H          0.149097  
         N1        1.0000    0.16780   0.53100   0.64580   Biso      1.000     N          0.521631  
         N2        1.0000    0.18420   0.54580   0.92676   Biso      1.000     N          -0.165219           
         N3        1.0000    0.87450   0.62990   0.68970   Biso      1.000     N          0.538126  
         N4        1.0000    0.86690   0.30930   0.78430   Biso      1.000     N          0.562167  
         N5        1.0000    0.37450   0.12990   0.81030   Biso      1.000     N          0.538126  
         N6        1.0000    0.64080   0.45960   0.84780   Biso      1.000     N          0.549966  
         N7        1.0000    0.66780   0.03100   0.85420   Biso      1.000     N          0.521631  
         N8        1.0000    0.68820   0.41900   0.57394   Biso      1.000     N          -0.174573           
         N9        1.0000    0.68420   0.04580   0.57324   Biso      1.000     N          -0.165219           
         N10       1.0000    0.80930   0.36690   0.28430   Biso      1.000     N          0.562167  
         N11       1.0000    0.62990   0.87450   0.31030   Biso      1.000     N          0.538126  
         N12       1.0000    0.18820   0.91900   0.92606   Biso      1.000     N          -0.174573           
         N13       1.0000    0.95960   0.14080   0.34780   Biso      1.000     N          0.549966  
         N14       1.0000    0.54580   0.18420   0.07324   Biso      1.000     N          -0.165218           
         N15       1.0000    0.36690   0.80930   0.71570   Biso      1.000     N          0.562167  
         N16       1.0000    0.04580   0.68420   0.42676   Biso      1.000     N          -0.165218           
         N17       1.0000    0.41900   0.68820   0.42606   Biso      1.000     N          -0.174575           
         N18       1.0000    0.03100   0.66780   0.14580   Biso      1.000     N          0.521632  
         N19       1.0000    0.45960   0.64080   0.15220   Biso      1.000     N          0.549966  
         N20       1.0000    0.12990   0.37450   0.18970   Biso      1.000     N          0.538125  
         N21       1.0000    0.30930   0.86690   0.21570   Biso      1.000     N          0.562167  
         N22       1.0000    0.14080   0.95960   0.65220   Biso      1.000     N          0.549965  
         N23       1.0000    0.91900   0.18820   0.07394   Biso      1.000     N          -0.174574           
         N24       1.0000    0.53100   0.16780   0.35420   Biso      1.000     N          0.521632  
         Ni1       1.0000    0.68661   0.23365   0.57295   Biso      1.000     Ni          0.601184  
         Ni2       1.0000    0.23365   0.68661   0.42705   Biso      1.000     Ni          0.601186  
         Ni3       1.0000    0.73365   0.18661   0.07295   Biso      1.000     Ni          0.601183  
         Ni4       1.0000    0.18661   0.73365   0.92705   Biso      1.000     Ni          0.601185  
         O1        1.0000    0.11620   0.03240   0.62950   Biso      1.000     O          -0.331037           
         O2        1.0000    0.15030   0.96810   0.69104   Biso      1.000     O          -0.315815           
         O3        1.0000    0.88550   0.69730   0.65720   Biso      1.000     O          -0.350419           
         O4        1.0000    0.76570   0.54430   0.70310   Biso      1.000     O          -0.306243           
         O5        1.0000    0.45490   0.87930   0.74020   Biso      1.000     O          -0.323792           
         O6        1.0000    0.39290   0.78370   0.68100   Biso      1.000     O          -0.345304           
         O7        1.0000    0.24100   0.71240   0.49308   Biso      1.000     O          -0.513436           
         O8        1.0000    0.32740   0.93360   0.50307   Biso      1.000     O          -0.567589           
         O9        1.0000    0.93480   0.61700   0.85221   Biso      1.000     O          -0.559057           
         O10       1.0000    0.15890   0.71830   0.86188   Biso      1.000     O          -0.512439           
         O11       1.0000    0.53240   0.61620   0.12950   Biso      1.000     O          -0.331038           
         O12       1.0000    0.46810   0.65030   0.19104   Biso      1.000     O          -0.315815           
         O13       1.0000    0.19730   0.38550   0.15720   Biso      1.000     O          -0.350419           
         O14       1.0000    0.04430   0.26570   0.20310   Biso      1.000     O          -0.306244           
         O15       1.0000    0.37930   0.95490   0.24020   Biso      1.000     O          -0.323792           
         O16       1.0000    0.28370   0.89290   0.18100   Biso      1.000     O          -0.345304           
         O17       1.0000    0.21240   0.74100   0.99308   Biso      1.000     O          -0.513435           
         O18       1.0000    0.43360   0.82740   0.00307   Biso      1.000     O          -0.567589           
         O19       1.0000    0.11700   0.43480   0.35221   Biso      1.000     O          -0.559057           
         O20       1.0000    0.21830   0.65890   0.36188   Biso      1.000     O          -0.51244  
         O21       1.0000    0.98440   0.59860   0.17780   Biso      1.000     O          -0.31083  
         O22       1.0000    0.98540   0.73680   0.12970   Biso      1.000     O          -0.335024           
         O23       1.0000    0.48540   0.23680   0.37030   Biso      1.000     O          -0.335024           
         O24       1.0000    0.48440   0.09860   0.32220   Biso      1.000     O          -0.31083  
         O25       1.0000    0.65890   0.21830   0.63812   Biso      1.000     O          -0.51244  
         O26       1.0000    0.43480   0.11700   0.64779   Biso      1.000     O          -0.559057           
         O27       1.0000    0.82740   0.43360   0.99693   Biso      1.000     O          -0.567589           
         O28       1.0000    0.74100   0.21240   0.00692   Biso      1.000     O          -0.513435           
         O29       1.0000    0.89290   0.28370   0.81900   Biso      1.000     O          -0.345304           
         O30       1.0000    0.95490   0.37930   0.75980   Biso      1.000     O          -0.323792           
         O31       1.0000    0.26570   0.04430   0.79690   Biso      1.000     O          -0.306244           
         O32       1.0000    0.38550   0.19730   0.84280   Biso      1.000     O          -0.350419           
         O33       1.0000    0.65030   0.46810   0.80896   Biso      1.000     O          -0.315815           
         O34       1.0000    0.61620   0.53240   0.87050   Biso      1.000     O          -0.331038           
         O35       1.0000    0.09860   0.48440   0.67780   Biso      1.000     O          -0.31083  
         O36       1.0000    0.59860   0.98440   0.82220   Biso      1.000     O          -0.31083  
         O37       1.0000    0.71830   0.15890   0.13812   Biso      1.000     O          -0.512439           
         O38       1.0000    0.61700   0.93480   0.14779   Biso      1.000     O          -0.559057           
         O39       1.0000    0.93360   0.32740   0.49693   Biso      1.000     O          -0.567589           
         O40       1.0000    0.71240   0.24100   0.50692   Biso      1.000     O          -0.513435           
         O41       1.0000    0.78370   0.39290   0.31900   Biso      1.000     O          -0.345304           
         O42       1.0000    0.87930   0.45490   0.25980   Biso      1.000     O          -0.323792           
         O43       1.0000    0.54430   0.76570   0.29690   Biso      1.000     O          -0.306244           
         O44       1.0000    0.69730   0.88550   0.34280   Biso      1.000     O          -0.350419           
         O45       1.0000    0.96810   0.15030   0.30896   Biso      1.000     O          -0.315815           
         O46       1.0000    0.03240   0.11620   0.37050   Biso      1.000     O          -0.331038           
         O47       1.0000    0.73680   0.98540   0.87030   Biso      1.000     O          -0.335024           
         O48       1.0000    0.23680   0.48540   0.62970   Biso      1.000     O          -0.335024 