
##########################################################################
#               Crystallographic Information Format file
#               Produced by PyCifRW module
#
#  This is a CIF file.  CIF has been adopted by the International
#  Union of Crystallography as the standard for data archiving and
#  transmission.
#
#  For information on this file format, follow the CIF links at
#  http://www.iucr.org
##########################################################################

data_image0

_cell_length_a                          8.002
_cell_length_b                          9.091
_cell_length_c                          12.935
_cell_angle_alpha                       107.805
_cell_angle_beta                        100.042
_cell_angle_gamma                       104.106
_symmetry_space_group_name_H-M          'P 1'
_symmetry_int_tables_number             1
loop_
  _symmetry_equiv_pos_as_xyz
         'x, y, z' 
loop_
  _atom_site_label
  _atom_site_occupancy
  _atom_site_fract_x
  _atom_site_fract_y
  _atom_site_fract_z
  _atom_site_thermal_displace_type
  _atom_site_B_iso_or_equiv
  _atom_site_type_symbol
  _atom_site_charge
         C1        1.0000    0.30190   0.15600   0.14674   Biso      1.000     C          -0.155223           
         C2        1.0000    0.49790   0.06960   0.03045   Biso      1.000     C          -0.140051           
         C3        1.0000    0.51740   0.98030   0.92606   Biso      1.000     C          -0.116191           
         C4        1.0000    0.36880   0.87056   0.83982   Biso      1.000     C          -0.021894999999999998         
         C5        1.0000    0.39790   0.77120   0.72931   Biso      1.000     C          0.595759  
         C6        1.0000    0.20040   0.85620   0.85556   Biso      1.000     C          -0.162846           
         C7        1.0000    0.13510   0.14120   0.16072   Biso      1.000     C          -0.029937000000000002         
         C8        1.0000    0.98430   0.03010   0.06970   Biso      1.000     C          -0.11795499999999999          
         C9        1.0000    0.00200   0.93870   0.97425   Biso      1.000     C          -0.131892           
         C10       1.0000    0.10550   0.23200   0.26728   Biso      1.000     C          0.6099359999999999  
         C11       1.0000    0.83780   0.40610   0.69767   Biso      1.000     C          0.598278  
         C12       1.0000    0.82110   0.42360   0.81164   Biso      1.000     C          -0.030842           
         C13       1.0000    0.89160   0.33720   0.87396   Biso      1.000     C          -0.10020499999999999          
         C14       1.0000    0.87550   0.35540   0.97884   Biso      1.000     C          -0.131128           
         C15       1.0000    0.78870   0.45920   0.03047   Biso      1.000     C          0.09726900000000001           
         C16       1.0000    0.71570   0.54570   0.97099   Biso      1.000     C          0.080808  
         C17       1.0000    0.72970   0.52580   0.86140   Biso      1.000     C          -0.16453199999999998          
         C18       1.0000    0.76320   0.47810   0.13810   Biso      1.000     C          -0.17571900000000001          
         C19       1.0000    0.68100   0.58150   0.18651   Biso      1.000     C          -0.015915000000000002         
         C20       1.0000    0.60800   0.66810   0.12911   Biso      1.000     C          -0.10346099999999998          
         C21       1.0000    0.62330   0.65230   0.02333   Biso      1.000     C          -0.132889           
         C22       1.0000    0.66350   0.59900   0.30560   Biso      1.000     C          0.606387  
         C23       1.0000    0.32600   0.05626   0.04170   Biso      1.000     C          0.08666900000000001           
         C24       1.0000    0.17510   0.94580   0.95289   Biso      1.000     C          0.092771  
         Co1       1.0000    0.24973   0.50272   0.49989   Biso      1.000     Co          0.988345  
         Co2       1.0000    0.74974   0.50250   0.49979   Biso      1.000     Co          1.007967  
         H1        1.0000    0.93030   0.32890   0.41210   Biso      1.000     H          0.44928100000000004           
         H2        1.0000    0.57410   0.68160   0.58600   Biso      1.000     H          0.446795  
         H3        1.0000    0.53810   0.66380   0.47580   Biso      1.000     H          0.444738  
         H4        1.0000    0.57430   0.71010   0.98520   Biso      1.000     H          0.114928  
         H5        1.0000    0.96490   0.34260   0.52130   Biso      1.000     H          0.45077799999999996           
         H6        1.0000    0.63090   0.99480   0.91450   Biso      1.000     H          0.11117300000000001           
         H7        1.0000    0.10130   0.78280   0.79760   Biso      1.000     H          0.123251  
         H8        1.0000    0.59750   0.13590   0.09050   Biso      1.000     H          0.124508  
         H9        1.0000    0.86990   0.02220   0.07840   Biso      1.000     H          0.110007  
         H10       1.0000    0.89960   0.86680   0.91830   Biso      1.000     H          0.118353  
         H11       1.0000    0.95040   0.26630   0.84140   Biso      1.000     H          0.12055899999999999           
         H12       1.0000    0.92350   0.29730   0.01710   Biso      1.000     H          0.115067  
         H13       1.0000    0.67810   0.58080   0.82190   Biso      1.000     H          0.124829  
         H14       1.0000    0.80460   0.41720   0.17660   Biso      1.000     H          0.12075899999999999           
         H15       1.0000    0.54840   0.73700   0.16330   Biso      1.000     H          0.12134400000000001           
         H16       1.0000    0.40120   0.22990   0.20430   Biso      1.000     H          0.125866  
         O1        1.0000    0.90100   0.30025   0.64647   Biso      1.000     O          -0.552099           
         O2        1.0000    0.60270   0.70765   0.35301   Biso      1.000     O          -0.5667300000000001           
         O3        1.0000    0.71350   0.50497   0.34257   Biso      1.000     O          -0.5617439999999999           
         O4        1.0000    0.79220   0.50655   0.65741   Biso      1.000     O          -0.578683           
         O5        1.0000    0.53562   0.61042   0.51953   Biso      1.000     O          -0.8576440000000001           
         O6        1.0000    0.24006   0.33154   0.34642   Biso      1.000     O          -0.60464  
         O7        1.0000    0.55558   0.79871   0.72401   Biso      1.000     O          -0.541025           
         O8        1.0000    0.26002   0.67553   0.65219   Biso      1.000     O          -0.5887   
         O9        1.0000    0.95080   0.21440   0.27592   Biso      1.000     O          -0.5465939999999999           
         O10       1.0000    0.96811   0.39825   0.47911   Biso      1.000     O          -0.857884 