
##########################################################################
#               Crystallographic Information Format file
#               Produced by PyCifRW module
#
#  This is a CIF file.  CIF has been adopted by the International
#  Union of Crystallography as the standard for data archiving and
#  transmission.
#
#  For information on this file format, follow the CIF links at
#  http://www.iucr.org
##########################################################################

data_image0

_cell_length_a                          12.9595
_cell_length_b                          14.7341
_cell_length_c                          15.3571
_cell_angle_alpha                       90
_cell_angle_beta                        90
_cell_angle_gamma                       90
_symmetry_space_group_name_H-M          'P 1'
_symmetry_int_tables_number             1
loop_
  _symmetry_equiv_pos_as_xyz
         'x, y, z' 
loop_
  _atom_site_label
  _atom_site_occupancy
  _atom_site_fract_x
  _atom_site_fract_y
  _atom_site_fract_z
  _atom_site_thermal_displace_type
  _atom_site_B_iso_or_equiv
  _atom_site_type_symbol
  _atom_site_charge
         C1        1.0000    0.60220   0.27230   0.14790   Biso      1.000     C          -0.026843000000000002         
         C2        1.0000    0.86580   0.53040   0.80550   Biso      1.000     C          0.63439   
         C3        1.0000    0.08810   0.16910   0.77990   Biso      1.000     C          -0.104724           
         C4        1.0000    0.10220   0.22770   0.85210   Biso      1.000     C          -0.026843000000000002         
         C5        1.0000    0.58810   0.33090   0.22010   Biso      1.000     C          -0.104723           
         C6        1.0000    0.46490   0.69020   0.36170   Biso      1.000     C          0.619583  
         C7        1.0000    0.23800   0.12910   0.90570   Biso      1.000     C          -0.032715           
         C8        1.0000    0.76200   0.62910   0.59430   Biso      1.000     C          -0.032714           
         C9        1.0000    0.65000   0.40680   0.22850   Biso      1.000     C          -0.023549           
         C10       1.0000    0.77760   0.57270   0.66740   Biso      1.000     C          -0.104084           
         C11       1.0000    0.22240   0.07270   0.83260   Biso      1.000     C          -0.104084           
         C12       1.0000    0.15000   0.09320   0.77150   Biso      1.000     C          -0.023541           
         C13       1.0000    0.31750   0.10860   0.97270   Biso      1.000     C          0.6076729999999999  
         C14       1.0000    0.73800   0.37090   0.09430   Biso      1.000     C          -0.032715           
         C15       1.0000    0.91190   0.66910   0.72010   Biso      1.000     C          -0.104724           
         C16       1.0000    0.17610   0.20760   0.91370   Biso      1.000     C          -0.109398           
         C17       1.0000    0.68250   0.60860   0.52730   Biso      1.000     C          0.607672  
         C18       1.0000    0.18250   0.89140   0.47270   Biso      1.000     C          0.607672  
         C19       1.0000    0.82390   0.70760   0.58630   Biso      1.000     C          -0.109399           
         C20       1.0000    0.35000   0.90680   0.27150   Biso      1.000     C          -0.023549           
         C21       1.0000    0.85000   0.59320   0.72850   Biso      1.000     C          -0.023541           
         C22       1.0000    0.72240   0.42730   0.16740   Biso      1.000     C          -0.104076           
         C23       1.0000    0.36580   0.96960   0.19450   Biso      1.000     C          0.634391  
         C24       1.0000    0.96490   0.80980   0.63830   Biso      1.000     C          0.619583  
         C25       1.0000    0.32390   0.79240   0.41370   Biso      1.000     C          -0.109399           
         C26       1.0000    0.26200   0.87090   0.40570   Biso      1.000     C          -0.032715           
         C27       1.0000    0.41190   0.83090   0.27990   Biso      1.000     C          -0.104723           
         C28       1.0000    0.63420   0.46960   0.30550   Biso      1.000     C          0.634391  
         C29       1.0000    0.81750   0.39140   0.02730   Biso      1.000     C          0.6076729999999999  
         C30       1.0000    0.89780   0.72770   0.64790   Biso      1.000     C          -0.026842           
         C31       1.0000    0.27760   0.92730   0.33260   Biso      1.000     C          -0.104076           
         C32       1.0000    0.03510   0.30980   0.86170   Biso      1.000     C          0.619583  
         C33       1.0000    0.67610   0.29240   0.08630   Biso      1.000     C          -0.109398           
         C34       1.0000    0.39780   0.77230   0.35210   Biso      1.000     C          -0.026842           
         C35       1.0000    0.13420   0.03040   0.69450   Biso      1.000     C          0.63439   
         C36       1.0000    0.53510   0.19020   0.13830   Biso      1.000     C          0.619583  
         H1        1.0000    0.46230   0.81850   0.23850   Biso      1.000     H          0.127425  
         H2        1.0000    0.18540   0.24620   0.96100   Biso      1.000     H          0.12253800000000001           
         H3        1.0000    0.31460   0.75380   0.46100   Biso      1.000     H          0.12253800000000001           
         H4        1.0000    0.96230   0.68150   0.76150   Biso      1.000     H          0.127425  
         H5        1.0000    0.68540   0.25380   0.03900   Biso      1.000     H          0.12253800000000001           
         H6        1.0000    0.23770   0.97930   0.32610   Biso      1.000     H          0.125563  
         H7        1.0000    0.73770   0.52070   0.67390   Biso      1.000     H          0.125563  
         H8        1.0000    0.26230   0.02070   0.82610   Biso      1.000     H          0.125564  
         H9        1.0000    0.76230   0.47930   0.17390   Biso      1.000     H          0.125563  
         H10       1.0000    0.81460   0.74620   0.53900   Biso      1.000     H          0.12253800000000001           
         H11       1.0000    0.53770   0.31850   0.26150   Biso      1.000     H          0.127425  
         H12       1.0000    0.03770   0.18150   0.73850   Biso      1.000     H          0.127425  
         O1        1.0000    0.05750   0.04600   0.64640   Biso      1.000     O          -0.586208           
         O2        1.0000    0.95790   0.31770   0.81250   Biso      1.000     O          -0.522041           
         O3        1.0000    0.36990   0.03650   0.96200   Biso      1.000     O          -0.560984           
         O4        1.0000    0.44250   0.95400   0.14640   Biso      1.000     O          -0.586208           
         O5        1.0000    0.66840   0.66420   0.46770   Biso      1.000     O          -0.526679           
         O6        1.0000    0.69570   0.53160   0.31590   Biso      1.000     O          -0.518371           
         O7        1.0000    0.43840   0.63350   0.41980   Biso      1.000     O          -0.5767359999999999           
         O8        1.0000    0.04210   0.81770   0.68750   Biso      1.000     O          -0.522041           
         O9        1.0000    0.83160   0.33580   0.96770   Biso      1.000     O          -0.526679           
         O10       1.0000    0.54210   0.68230   0.31250   Biso      1.000     O          -0.522041           
         O11       1.0000    0.55750   0.45400   0.35360   Biso      1.000     O          -0.586208           
         O12       1.0000    0.80430   0.46840   0.81590   Biso      1.000     O          -0.51837  
         O13       1.0000    0.13010   0.96350   0.46200   Biso      1.000     O          -0.5609850000000001           
         O14       1.0000    0.93840   0.86650   0.58020   Biso      1.000     O          -0.5767359999999999           
         O15       1.0000    0.45790   0.18230   0.18750   Biso      1.000     O          -0.522041           
         O16       1.0000    0.86990   0.46350   0.03800   Biso      1.000     O          -0.5609850000000001           
         O17       1.0000    0.16840   0.83580   0.53230   Biso      1.000     O          -0.526679           
         O18       1.0000    0.19570   0.96840   0.68410   Biso      1.000     O          -0.518371           
         O19       1.0000    0.06160   0.36650   0.91980   Biso      1.000     O          -0.5767359999999999           
         O20       1.0000    0.63010   0.53650   0.53800   Biso      1.000     O          -0.560984           
         O21       1.0000    0.56160   0.13350   0.08020   Biso      1.000     O          -0.576735           
         O22       1.0000    0.33160   0.16420   0.03230   Biso      1.000     O          -0.526679           
         O23       1.0000    0.94250   0.54600   0.85360   Biso      1.000     O          -0.586208           
         O24       1.0000    0.30430   0.03160   0.18410   Biso      1.000     O          -0.518371           
         Zn1       1.0000    0.01788   0.97247   0.54700   Biso      1.000     Zn          1.038249  
         Zn2       1.0000    0.20186   0.82856   0.66545   Biso      1.000     Zn          0.41690200000000005           
         Zn3       1.0000    0.98212   0.47247   0.95300   Biso      1.000     Zn          1.03825   
         Zn4       1.0000    0.51788   0.52753   0.45300   Biso      1.000     Zn          1.03825   
         Zn5       1.0000    0.48212   0.02753   0.04700   Biso      1.000     Zn          1.038249  
         Zn6       1.0000    0.70186   0.67144   0.33455   Biso      1.000     Zn          0.41690200000000005           
         Zn7       1.0000    0.79814   0.32856   0.83455   Biso      1.000     Zn          0.41690200000000005           
         Zn8       1.0000    0.29814   0.17144   0.16545   Biso      1.000     Zn          0.41690200000000005 