
##########################################################################
#               Crystallographic Information Format file
#               Produced by PyCifRW module
#
#  This is a CIF file.  CIF has been adopted by the International
#  Union of Crystallography as the standard for data archiving and
#  transmission.
#
#  For information on this file format, follow the CIF links at
#  http://www.iucr.org
##########################################################################

data_image0

_cell_length_a                          4.7109
_cell_length_b                          11.002
_cell_length_c                          31.858
_cell_angle_alpha                       90
_cell_angle_beta                        90
_cell_angle_gamma                       96.008
_symmetry_space_group_name_H-M          'P 1'
_symmetry_int_tables_number             1
loop_
  _symmetry_equiv_pos_as_xyz
         'x, y, z' 
loop_
  _atom_site_label
  _atom_site_occupancy
  _atom_site_fract_x
  _atom_site_fract_y
  _atom_site_fract_z
  _atom_site_thermal_displace_type
  _atom_site_B_iso_or_equiv
  _atom_site_type_symbol
  _atom_site_charge
         C1        1.0000    0.35000   0.94900   0.42600   Biso      1.000     C          -0.207177           
         C2        1.0000    0.15340   0.14320   0.42480   Biso      1.000     C          -0.191831           
         C3        1.0000    0.44770   0.96850   0.38500   Biso      1.000     C          0.09512000000000001           
         C4        1.0000    0.25110   0.16280   0.38380   Biso      1.000     C          0.128456  
         C5        1.0000    0.03170   0.44280   0.20840   Biso      1.000     C          0.630246  
         C6        1.0000    0.84480   0.32470   0.21210   Biso      1.000     C          0.080353  
         C7        1.0000    0.60250   0.17140   0.17330   Biso      1.000     C          0.060783000000000004          
         C8        1.0000    0.88268   0.48055   0.99341   Biso      1.000     C          -0.14258900000000002          
         C9        1.0000    0.21650   0.17700   0.79470   Biso      1.000     C          0.49810299999999996           
         C10       1.0000    0.26740   0.22940   0.74930   Biso      1.000     C          0.048846  
         C11       1.0000    0.20290   0.03630   0.44590   Biso      1.000     C          0.150008  
         C12       1.0000    0.50950   0.38670   0.70980   Biso      1.000     C          0.077099  
         C13       1.0000    0.15520   0.17530   0.71210   Biso      1.000     C          0.08051799999999999           
         C14       1.0000    0.96830   0.05720   0.70840   Biso      1.000     C          0.629671  
         C15       1.0000    0.74890   0.33720   0.88380   Biso      1.000     C          0.12872   
         C16       1.0000    0.55230   0.53150   0.88500   Biso      1.000     C          0.095631  
         C17       1.0000    0.65000   0.55100   0.92600   Biso      1.000     C          -0.207688           
         C18       1.0000    0.84660   0.35680   0.92480   Biso      1.000     C          -0.192297           
         C19       1.0000    0.79710   0.46370   0.94590   Biso      1.000     C          0.148855  
         C20       1.0000    0.11732   0.01945   0.49341   Biso      1.000     C          -0.143623           
         C21       1.0000    0.78350   0.32300   0.29470   Biso      1.000     C          0.498011  
         C22       1.0000    0.39750   0.32860   0.67330   Biso      1.000     C          0.060455999999999996          
         C23       1.0000    0.11732   0.51945   0.00659   Biso      1.000     C          -0.14336400000000002          
         C24       1.0000    0.78350   0.82300   0.20530   Biso      1.000     C          0.49799899999999997           
         C25       1.0000    0.73260   0.77060   0.25070   Biso      1.000     C          0.048869  
         C26       1.0000    0.79710   0.96370   0.55410   Biso      1.000     C          0.14869300000000002           
         C27       1.0000    0.84660   0.85680   0.57520   Biso      1.000     C          -0.192349           
         C28       1.0000    0.65000   0.05100   0.57400   Biso      1.000     C          -0.20779  
         C29       1.0000    0.55230   0.03150   0.61500   Biso      1.000     C          0.095539  
         C30       1.0000    0.74890   0.83720   0.61620   Biso      1.000     C          0.128686  
         C31       1.0000    0.96830   0.55720   0.79160   Biso      1.000     C          0.629918  
         C32       1.0000    0.15520   0.67530   0.78790   Biso      1.000     C          0.08040499999999999           
         C33       1.0000    0.39750   0.82860   0.82670   Biso      1.000     C          0.060278  
         C34       1.0000    0.50950   0.88670   0.79020   Biso      1.000     C          0.077034  
         C35       1.0000    0.26740   0.72940   0.75070   Biso      1.000     C          0.04894   
         C36       1.0000    0.21650   0.67700   0.70530   Biso      1.000     C          0.498109  
         C37       1.0000    0.88268   0.98055   0.50659   Biso      1.000     C          -0.142352           
         C38       1.0000    0.20290   0.53630   0.05410   Biso      1.000     C          0.14986   
         C39       1.0000    0.15340   0.64320   0.07520   Biso      1.000     C          -0.19187  
         C40       1.0000    0.35000   0.44900   0.07400   Biso      1.000     C          -0.20725500000000002          
         C41       1.0000    0.44770   0.46850   0.11500   Biso      1.000     C          0.095098  
         C42       1.0000    0.25110   0.66280   0.11620   Biso      1.000     C          0.128436  
         C43       1.0000    0.03170   0.94280   0.29160   Biso      1.000     C          0.6304109999999999  
         C44       1.0000    0.84480   0.82470   0.28790   Biso      1.000     C          0.08027999999999999           
         C45       1.0000    0.60250   0.67140   0.32670   Biso      1.000     C          0.060735000000000004          
         C46       1.0000    0.49050   0.61330   0.29020   Biso      1.000     C          0.077142  
         C47       1.0000    0.73260   0.27060   0.24930   Biso      1.000     C          0.048845  
         C48       1.0000    0.49050   0.11330   0.20980   Biso      1.000     C          0.077171  
         Cu1       1.0000    0.50100   0.41100   0.80420   Biso      1.000     Cu          0.8917370000000001  
         Cu2       1.0000    0.49900   0.58900   0.19580   Biso      1.000     Cu          0.8921379999999999  
         Cu3       1.0000    0.49900   0.08900   0.30420   Biso      1.000     Cu          0.89266   
         Cu4       1.0000    0.50100   0.91100   0.69580   Biso      1.000     Cu          0.891134  
         H1        1.0000    0.94680   0.79730   0.56160   Biso      1.000     H          0.139774  
         H2        1.0000    0.63130   0.46100   0.70810   Biso      1.000     H          0.135321  
         H3        1.0000    0.44890   0.36410   0.64680   Biso      1.000     H          0.101852  
         H4        1.0000    0.73330   0.46060   0.01300   Biso      1.000     H          0.11228800000000001           
         H5        1.0000    0.45210   0.59090   0.87140   Biso      1.000     H          0.100448  
         H6        1.0000    0.61630   0.62380   0.94040   Biso      1.000     H          0.12991   
         H7        1.0000    0.78250   0.26440   0.86940   Biso      1.000     H          0.11850799999999999           
         H8        1.0000    0.94680   0.29730   0.93840   Biso      1.000     H          0.139809  
         H9        1.0000    0.36870   0.03900   0.20810   Biso      1.000     H          0.135414  
         H10       1.0000    0.55110   0.13590   0.14680   Biso      1.000     H          0.10234800000000001           
         H11       1.0000    0.26670   0.03940   0.51300   Biso      1.000     H          0.112945  
         H12       1.0000    0.54790   0.90910   0.37140   Biso      1.000     H          0.100276  
         H13       1.0000    0.38370   0.87620   0.44040   Biso      1.000     H          0.130326  
         H14       1.0000    0.78250   0.76440   0.63060   Biso      1.000     H          0.11848299999999999           
         H15       1.0000    0.05320   0.20270   0.43840   Biso      1.000     H          0.140254  
         H16       1.0000    0.61630   0.12380   0.55960   Biso      1.000     H          0.12985   
         H17       1.0000    0.45210   0.09090   0.62860   Biso      1.000     H          0.10040299999999999           
         H18       1.0000    0.73330   0.96060   0.48700   Biso      1.000     H          0.11221700000000001           
         H19       1.0000    0.63130   0.96100   0.79190   Biso      1.000     H          0.135237  
         H20       1.0000    0.05320   0.70270   0.06160   Biso      1.000     H          0.14022300000000001           
         H21       1.0000    0.44890   0.86410   0.85320   Biso      1.000     H          0.101764  
         H22       1.0000    0.38370   0.37620   0.05960   Biso      1.000     H          0.13028599999999999           
         H23       1.0000    0.54790   0.40910   0.12860   Biso      1.000     H          0.100277  
         H24       1.0000    0.26670   0.53940   0.98700   Biso      1.000     H          0.11288699999999999           
         H25       1.0000    0.55110   0.63590   0.35320   Biso      1.000     H          0.10235599999999999           
         H26       1.0000    0.36870   0.53900   0.29190   Biso      1.000     H          0.135399  
         H27       1.0000    0.21750   0.73560   0.13060   Biso      1.000     H          0.118373  
         H28       1.0000    0.21750   0.23560   0.36940   Biso      1.000     H          0.11836600000000001           
         N1        1.0000    0.77670   0.77360   0.32570   Biso      1.000     N          -0.274092           
         N2        1.0000    0.60170   0.92460   0.63610   Biso      1.000     N          -0.24080700000000002          
         N3        1.0000    0.22330   0.72640   0.82570   Biso      1.000     N          -0.27505300000000005          
         N4        1.0000    0.43950   0.83400   0.75190   Biso      1.000     N          -0.193359           
         N5        1.0000    0.39830   0.57540   0.13610   Biso      1.000     N          -0.24133000000000002          
         N6        1.0000    0.56050   0.66600   0.25190   Biso      1.000     N          -0.193128           
         N7        1.0000    0.77670   0.27360   0.17430   Biso      1.000     N          -0.274025           
         N8        1.0000    0.56050   0.16600   0.24810   Biso      1.000     N          -0.19314800000000001          
         N9        1.0000    0.60170   0.42460   0.86390   Biso      1.000     N          -0.24071900000000002          
         N10       1.0000    0.22330   0.22640   0.67430   Biso      1.000     N          -0.27478  
         N11       1.0000    0.43950   0.33400   0.74810   Biso      1.000     N          -0.193247           
         N12       1.0000    0.39830   0.07540   0.36390   Biso      1.000     N          -0.241385           
         O1        1.0000    0.01927   0.56993   0.69970   Biso      1.000     O          -0.593569           
         O2        1.0000    0.31485   0.74416   0.67704   Biso      1.000     O          -0.513682           
         O3        1.0000    0.89418   0.01101   0.30276   Biso      1.000     O          -0.514389           
         O4        1.0000    0.29181   0.99211   0.28265   Biso      1.000     O          -0.626347           
         O5        1.0000    0.98073   0.93007   0.19970   Biso      1.000     O          -0.593741           
         O6        1.0000    0.68515   0.75584   0.17704   Biso      1.000     O          -0.513041           
         O7        1.0000    0.89418   0.51101   0.19724   Biso      1.000     O          -0.514286           
         O8        1.0000    0.68515   0.25584   0.32296   Biso      1.000     O          -0.513037           
         O9        1.0000    0.98073   0.43007   0.30030   Biso      1.000     O          -0.593532           
         O10       1.0000    0.10582   0.98899   0.69724   Biso      1.000     O          -0.51469  
         O11       1.0000    0.70819   0.00789   0.71735   Biso      1.000     O          -0.626794           
         O12       1.0000    0.01927   0.06993   0.80030   Biso      1.000     O          -0.592924           
         O13       1.0000    0.31485   0.24416   0.82296   Biso      1.000     O          -0.51358  
         O14       1.0000    0.70819   0.50789   0.78265   Biso      1.000     O          -0.626333           
         O15       1.0000    0.29181   0.49211   0.21735   Biso      1.000     O          -0.6264460000000001           
         O16       1.0000    0.10582   0.48899   0.80276   Biso      1.000     O          -0.51494 