
##########################################################################
#               Crystallographic Information Format file
#               Produced by PyCifRW module
#
#  This is a CIF file.  CIF has been adopted by the International
#  Union of Crystallography as the standard for data archiving and
#  transmission.
#
#  For information on this file format, follow the CIF links at
#  http://www.iucr.org
##########################################################################

data_image0

_cell_length_a                          16.473
_cell_length_b                          17.068
_cell_length_c                          17.384
_cell_angle_alpha                       77.35
_cell_angle_beta                        62.91
_cell_angle_gamma                       62.4
_symmetry_space_group_name_H-M          'P 1'
_symmetry_int_tables_number             1
loop_
  _symmetry_equiv_pos_as_xyz
         'x, y, z' 
loop_
  _atom_site_label
  _atom_site_occupancy
  _atom_site_fract_x
  _atom_site_fract_y
  _atom_site_fract_z
  _atom_site_thermal_displace_type
  _atom_site_B_iso_or_equiv
  _atom_site_type_symbol
  _atom_site_charge
         Sm1       1.0000    0.96721   0.79423   0.04361   Biso      1.000     Sm          1.934172  
         Sm2       1.0000    0.00840   0.02543   0.69236   Biso      1.000     Sm          1.943297  
         Sm3       1.0000    0.68675   0.30530   0.55365   Biso      1.000     Sm          1.941995  
         Sm4       1.0000    0.23356   0.47203   0.79327   Biso      1.000     Sm          1.955579  
         Sm5       1.0000    0.03279   0.20577   0.95639   Biso      1.000     Sm          1.934172  
         Sm6       1.0000    0.99160   0.97457   0.30764   Biso      1.000     Sm          1.943297  
         Sm7       1.0000    0.31325   0.69470   0.44635   Biso      1.000     Sm          1.941995  
         Sm8       1.0000    0.76644   0.52797   0.20673   Biso      1.000     Sm          1.955579  
         H1        1.0000    0.04000   0.33991   0.70897   Biso      1.000     H          0.12053   
         H2        1.0000    0.23611   0.72309   0.17517   Biso      1.000     H          0.117015  
         H3        1.0000    0.65404   0.02825   0.48598   Biso      1.000     H          0.110406  
         H4        1.0000    0.36540   0.58173   0.09551   Biso      1.000     H          0.097918  
         H5        1.0000    0.33231   0.52478   0.99514   Biso      1.000     H          0.114373  
         H6        1.0000    0.37885   0.20896   0.67784   Biso      1.000     H          0.119044  
         H7        1.0000    0.47285   0.06948   0.59200   Biso      1.000     H          0.099607  
         H8        1.0000    0.15858   0.50774   0.50745   Biso      1.000     H          0.111202  
         H9        1.0000    0.56993   0.09162   0.94907   Biso      1.000     H          0.099095  
         H10       1.0000    0.60482   0.17056   0.80513   Biso      1.000     H          0.120252  
         H11       1.0000    0.71619   0.97646   0.98237   Biso      1.000     H          0.108441  
         H12       1.0000    0.06069   0.41454   0.56332   Biso      1.000     H          0.09901   
         H13       1.0000    0.96000   0.66009   0.29103   Biso      1.000     H          0.12053   
         H14       1.0000    0.76389   0.27691   0.82483   Biso      1.000     H          0.117015  
         H15       1.0000    0.34596   0.97175   0.51402   Biso      1.000     H          0.110406  
         H16       1.0000    0.63460   0.41827   0.90449   Biso      1.000     H          0.097918  
         H17       1.0000    0.66769   0.47522   0.00486   Biso      1.000     H          0.114373  
         H18       1.0000    0.62115   0.79104   0.32216   Biso      1.000     H          0.119044  
         H19       1.0000    0.52715   0.93052   0.40800   Biso      1.000     H          0.099607  
         H20       1.0000    0.84142   0.49226   0.49255   Biso      1.000     H          0.111202  
         H21       1.0000    0.43007   0.90838   0.05093   Biso      1.000     H          0.099095  
         H22       1.0000    0.39518   0.82944   0.19487   Biso      1.000     H          0.120252  
         H23       1.0000    0.28381   0.02354   0.01763   Biso      1.000     H          0.108441  
         H24       1.0000    0.93931   0.58546   0.43668   Biso      1.000     H          0.09901   
         C1        1.0000    0.79814   0.14413   0.67791   Biso      1.000     C          0.582815  
         C2        1.0000    0.64670   0.07413   0.90053   Biso      1.000     C          -0.10138  
         C3        1.0000    0.66616   0.11861   0.82048   Biso      1.000     C          -0.099253           
         C4        1.0000    0.72834   0.00938   0.91914   Biso      1.000     C          -0.109503           
         C5        1.0000    0.76516   0.09805   0.76030   Biso      1.000     C          0.073959  
         C6        1.0000    0.82613   0.98982   0.85680   Biso      1.000     C          0.079534  
         C7        1.0000    0.76117   0.13144   0.45360   Biso      1.000     C          0.607894  
         C8        1.0000    0.16074   0.61700   0.95540   Biso      1.000     C          0.599523  
         C9        1.0000    0.11577   0.39896   0.73451   Biso      1.000     C          0.07871   
         C10       1.0000    0.17833   0.49350   0.62575   Biso      1.000     C          0.081533  
         C11       1.0000    0.23704   0.54561   0.60388   Biso      1.000     C          0.603321  
         C12       1.0000    0.11512   0.35692   0.81820   Biso      1.000     C          0.582098  
         C13       1.0000    0.19135   0.63897   0.01350   Biso      1.000     C          0.085909  
         C14       1.0000    0.13617   0.74634   0.11669   Biso      1.000     C          0.072175  
         C15       1.0000    0.08984   0.42554   0.60315   Biso      1.000     C          -0.097719           
         C16       1.0000    0.05148   0.82831   0.16044   Biso      1.000     C          0.576521  
         C17       1.0000    0.22423   0.69837   0.13008   Biso      1.000     C          -0.099486           
         C18       1.0000    0.07799   0.38388   0.68430   Biso      1.000     C          -0.103148           
         C19       1.0000    0.61034   0.09017   0.52216   Biso      1.000     C          -0.112836           
         C20       1.0000    0.50376   0.24464   0.61811   Biso      1.000     C          0.072227  
         C21       1.0000    0.29650   0.61943   0.08500   Biso      1.000     C          -0.10334  
         C22       1.0000    0.27870   0.58836   0.02748   Biso      1.000     C          -0.111472           
         C23       1.0000    0.45652   0.19016   0.63007   Biso      1.000     C          -0.094846           
         C24       1.0000    0.50899   0.11265   0.58183   Biso      1.000     C          -0.106413           
         C25       1.0000    0.14331   0.47889   0.57260   Biso      1.000     C          -0.112949           
         C26       1.0000    0.46119   0.32486   0.66632   Biso      1.000     C          0.564995  
         C27       1.0000    0.65482   0.14660   0.51072   Biso      1.000     C          0.086944  
         C28       1.0000    0.91836   0.93028   0.86974   Biso      1.000     C          0.606833  
         C29       1.0000    0.20186   0.85587   0.32209   Biso      1.000     C          0.582815  
         C30       1.0000    0.35330   0.92587   0.09947   Biso      1.000     C          -0.10138  
         C31       1.0000    0.33384   0.88139   0.17952   Biso      1.000     C          -0.099253           
         C32       1.0000    0.27166   0.99062   0.08086   Biso      1.000     C          -0.109503           
         C33       1.0000    0.23484   0.90195   0.23970   Biso      1.000     C          0.073959  
         C34       1.0000    0.17387   0.01018   0.14320   Biso      1.000     C          0.079534  
         C35       1.0000    0.23883   0.86856   0.54640   Biso      1.000     C          0.607894  
         C36       1.0000    0.83926   0.38300   0.04460   Biso      1.000     C          0.599523  
         C37       1.0000    0.88423   0.60104   0.26549   Biso      1.000     C          0.07871   
         C38       1.0000    0.82167   0.50650   0.37425   Biso      1.000     C          0.081533  
         C39       1.0000    0.76296   0.45439   0.39612   Biso      1.000     C          0.603321  
         C40       1.0000    0.88488   0.64308   0.18180   Biso      1.000     C          0.582098  
         C41       1.0000    0.80865   0.36103   0.98650   Biso      1.000     C          0.085909  
         C42       1.0000    0.86383   0.25366   0.88331   Biso      1.000     C          0.072175  
         C43       1.0000    0.91016   0.57446   0.39685   Biso      1.000     C          -0.097719           
         C44       1.0000    0.94852   0.17169   0.83956   Biso      1.000     C          0.576521  
         C45       1.0000    0.77577   0.30163   0.86992   Biso      1.000     C          -0.099486           
         C46       1.0000    0.92201   0.61612   0.31570   Biso      1.000     C          -0.103148           
         C47       1.0000    0.38966   0.90983   0.47784   Biso      1.000     C          -0.112836           
         C48       1.0000    0.49624   0.75536   0.38189   Biso      1.000     C          0.072227  
         C49       1.0000    0.70350   0.38057   0.91500   Biso      1.000     C          -0.10334  
         C50       1.0000    0.72130   0.41164   0.97252   Biso      1.000     C          -0.111472           
         C51       1.0000    0.54348   0.80984   0.36993   Biso      1.000     C          -0.094846           
         C52       1.0000    0.49101   0.88735   0.41817   Biso      1.000     C          -0.106413           
         C53       1.0000    0.85669   0.52111   0.42740   Biso      1.000     C          -0.112949           
         C54       1.0000    0.53881   0.67514   0.33368   Biso      1.000     C          0.564995  
         C55       1.0000    0.34518   0.85340   0.48928   Biso      1.000     C          0.086944  
         C56       1.0000    0.08164   0.06972   0.13026   Biso      1.000     C          0.606833  
         N1        1.0000    0.84528   0.03181   0.77717   Biso      1.000     N          -0.516201           
         N2        1.0000    0.60215   0.22432   0.55692   Biso      1.000     N          -0.517223           
         N3        1.0000    0.12177   0.71834   0.05621   Biso      1.000     N          -0.508165           
         N4        1.0000    0.16086   0.45693   0.70783   Biso      1.000     N          -0.507456           
         N5        1.0000    0.15472   0.96819   0.22283   Biso      1.000     N          -0.516201           
         N6        1.0000    0.39785   0.77568   0.44308   Biso      1.000     N          -0.517223           
         N7        1.0000    0.87823   0.28166   0.94379   Biso      1.000     N          -0.508165           
         N8        1.0000    0.83914   0.54307   0.29217   Biso      1.000     N          -0.507456           
         O1        1.0000    0.37168   0.35258   0.72914   Biso      1.000     O          -0.699447           
         O2        1.0000    0.73480   0.21265   0.65367   Biso      1.000     O          -0.708734           
         O3        1.0000    0.89532   0.11351   0.63132   Biso      1.000     O          -0.695387           
         O4        1.0000    0.91485   0.88651   0.94112   Biso      1.000     O          -0.728236           
         O5        1.0000    0.07456   0.67454   0.95483   Biso      1.000     O          -0.674149           
         O6        1.0000    0.51810   0.36725   0.64355   Biso      1.000     O          -0.696913           
         O7        1.0000    0.09031   0.29116   0.84791   Biso      1.000     O          -0.697034           
         O8        1.0000    0.14446   0.38747   0.85902   Biso      1.000     O          -0.688065           
         O9        1.0000    0.04571   0.86058   0.22498   Biso      1.000     O          -0.703089           
         O10       1.0000    0.82553   0.06077   0.40808   Biso      1.000     O          -0.718591           
         O11       1.0000    0.21470   0.54724   0.90788   Biso      1.000     O          -0.71519  
         O12       1.0000    0.00241   0.92656   0.80598   Biso      1.000     O          -0.661982           
         O13       1.0000    0.26092   0.54983   0.66447   Biso      1.000     O          -0.680661           
         O14       1.0000    0.26261   0.58459   0.52960   Biso      1.000     O          -0.719555           
         O15       1.0000    0.98104   0.86649   0.13146   Biso      1.000     O          -0.694402           
         O16       1.0000    0.78504   0.19410   0.45377   Biso      1.000     O          -0.664103           
         O17       1.0000    0.62832   0.64742   0.27086   Biso      1.000     O          -0.699447           
         O18       1.0000    0.26520   0.78735   0.34633   Biso      1.000     O          -0.708734           
         O19       1.0000    0.10468   0.88649   0.36868   Biso      1.000     O          -0.695387           
         O20       1.0000    0.08515   0.11349   0.05888   Biso      1.000     O          -0.728236           
         O21       1.0000    0.92544   0.32546   0.04517   Biso      1.000     O          -0.674149           
         O22       1.0000    0.48190   0.63275   0.35645   Biso      1.000     O          -0.696913           
         O23       1.0000    0.90969   0.70884   0.15209   Biso      1.000     O          -0.697034           
         O24       1.0000    0.85554   0.61253   0.14098   Biso      1.000     O          -0.688065           
         O25       1.0000    0.95429   0.13942   0.77502   Biso      1.000     O          -0.703089           
         O26       1.0000    0.17447   0.93923   0.59192   Biso      1.000     O          -0.718591           
         O27       1.0000    0.78530   0.45276   0.09212   Biso      1.000     O          -0.71519  
         O28       1.0000    0.99759   0.07344   0.19402   Biso      1.000     O          -0.661982           
         O29       1.0000    0.73908   0.45017   0.33553   Biso      1.000     O          -0.680661           
         O30       1.0000    0.73739   0.41541   0.47040   Biso      1.000     O          -0.719555           
         O31       1.0000    0.01896   0.13351   0.86854   Biso      1.000     O          -0.694402           
         O32       1.0000    0.21496   0.80590   0.54623   Biso      1.000     O          -0.664103 