
##########################################################################
#               Crystallographic Information Format file
#               Produced by PyCifRW module
#
#  This is a CIF file.  CIF has been adopted by the International
#  Union of Crystallography as the standard for data archiving and
#  transmission.
#
#  For information on this file format, follow the CIF links at
#  http://www.iucr.org
##########################################################################

data_image0

_cell_length_a                          22.249
_cell_length_b                          7.0528
_cell_length_c                          13.5747
_cell_angle_alpha                       90
_cell_angle_beta                        90
_cell_angle_gamma                       90
_symmetry_space_group_name_H-M          'P 1'
_symmetry_int_tables_number             1
loop_
  _symmetry_equiv_pos_as_xyz
         'x, y, z' 
loop_
  _atom_site_label
  _atom_site_occupancy
  _atom_site_fract_x
  _atom_site_fract_y
  _atom_site_fract_z
  _atom_site_thermal_displace_type
  _atom_site_B_iso_or_equiv
  _atom_site_type_symbol
  _atom_site_charge
         C1        1.0000    0.80460   0.75000   0.80200   Biso      1.000     C          0.037834  
         C2        1.0000    0.22300   0.91820   0.77500   Biso      1.000     C          -0.122421           
         C3        1.0000    0.63910   0.75000   0.64170   Biso      1.000     C          0.248755  
         C4        1.0000    0.80460   0.25000   0.19800   Biso      1.000     C          0.037844  
         C5        1.0000    0.22300   0.58180   0.77500   Biso      1.000     C          -0.122423           
         C6        1.0000    0.77700   0.58180   0.77500   Biso      1.000     C          -0.122428           
         C7        1.0000    0.86090   0.25000   0.14170   Biso      1.000     C          0.249309  
         C8        1.0000    0.72300   0.08180   0.27500   Biso      1.000     C          -0.122332           
         C9        1.0000    0.30460   0.75000   0.69800   Biso      1.000     C          0.038526  
         C10       1.0000    0.77700   0.41820   0.22500   Biso      1.000     C          -0.122427           
         C11       1.0000    0.36090   0.75000   0.64170   Biso      1.000     C          0.24874   
         C12       1.0000    0.77700   0.91820   0.77500   Biso      1.000     C          -0.122426           
         C13       1.0000    0.72300   0.41820   0.27500   Biso      1.000     C          -0.122328           
         C14       1.0000    0.27700   0.08180   0.27500   Biso      1.000     C          -0.122341           
         C15       1.0000    0.86090   0.75000   0.85830   Biso      1.000     C          0.249325  
         C16       1.0000    0.27700   0.41820   0.27500   Biso      1.000     C          -0.122345           
         C17       1.0000    0.69540   0.75000   0.69800   Biso      1.000     C          0.038522  
         C18       1.0000    0.22300   0.08180   0.22500   Biso      1.000     C          -0.122426           
         C19       1.0000    0.19540   0.75000   0.80200   Biso      1.000     C          0.037834  
         C20       1.0000    0.30460   0.25000   0.30200   Biso      1.000     C          0.038509  
         C21       1.0000    0.36090   0.25000   0.35830   Biso      1.000     C          0.248754  
         C22       1.0000    0.13910   0.25000   0.14170   Biso      1.000     C          0.249334  
         C23       1.0000    0.77700   0.08180   0.22500   Biso      1.000     C          -0.122419           
         C24       1.0000    0.13910   0.75000   0.85830   Biso      1.000     C          0.249315  
         C25       1.0000    0.27700   0.91820   0.72500   Biso      1.000     C          -0.122332           
         C26       1.0000    0.72300   0.91820   0.72500   Biso      1.000     C          -0.122334           
         C27       1.0000    0.72300   0.58180   0.72500   Biso      1.000     C          -0.122336           
         C28       1.0000    0.63910   0.25000   0.35830   Biso      1.000     C          0.248737  
         C29       1.0000    0.19540   0.25000   0.19800   Biso      1.000     C          0.037819  
         C30       1.0000    0.22300   0.41820   0.22500   Biso      1.000     C          -0.12243  
         C31       1.0000    0.69540   0.25000   0.30200   Biso      1.000     C          0.038521  
         C32       1.0000    0.27700   0.58180   0.72500   Biso      1.000     C          -0.122336           
         Cu1       1.0000    0.50000   0.50000   0.50000   Biso      1.000     Cu          0.544019  
         Cu2       1.0000    0.00000   0.50000   0.00000   Biso      1.000     Cu          0.545626  
         Cu3       1.0000    0.50000   0.00000   0.50000   Biso      1.000     Cu          0.544958  
         Cu4       1.0000    0.00000   0.00000   0.00000   Biso      1.000     Cu          0.546211  
         H1        1.0000    0.70480   0.46700   0.70920   Biso      1.000     H          0.122426  
         H2        1.0000    0.29520   0.96700   0.29080   Biso      1.000     H          0.122422  
         H3        1.0000    0.29520   0.03300   0.70920   Biso      1.000     H          0.12242   
         H4        1.0000    0.79520   0.46700   0.79080   Biso      1.000     H          0.122314  
         H5        1.0000    0.29520   0.53300   0.29080   Biso      1.000     H          0.122422  
         H6        1.0000    0.20480   0.96700   0.20920   Biso      1.000     H          0.122309  
         H7        1.0000    0.70480   0.53300   0.29080   Biso      1.000     H          0.122413  
         H8        1.0000    0.79520   0.03300   0.79080   Biso      1.000     H          0.122315  
         H9        1.0000    0.20480   0.46700   0.79080   Biso      1.000     H          0.122307  
         H10       1.0000    0.70480   0.96700   0.29080   Biso      1.000     H          0.122419  
         H11       1.0000    0.20480   0.53300   0.20920   Biso      1.000     H          0.12231   
         H12       1.0000    0.70480   0.03300   0.70920   Biso      1.000     H          0.122429  
         H13       1.0000    0.79520   0.96700   0.20920   Biso      1.000     H          0.122303  
         H14       1.0000    0.29520   0.46700   0.70920   Biso      1.000     H          0.122422  
         H15       1.0000    0.20480   0.03300   0.79080   Biso      1.000     H          0.12231   
         H16       1.0000    0.79520   0.53300   0.20920   Biso      1.000     H          0.122306  
         N1        1.0000    0.11095   0.09290   0.11290   Biso      1.000     N          -0.22871  
         N2        1.0000    0.06337   0.15620   0.06569   Biso      1.000     N          -0.051073           
         N3        1.0000    0.61095   0.59290   0.61290   Biso      1.000     N          -0.229133           
         N4        1.0000    0.56337   0.65620   0.56569   Biso      1.000     N          -0.050935           
         N5        1.0000    0.43663   0.65620   0.56569   Biso      1.000     N          -0.050969           
         N6        1.0000    0.93663   0.34380   0.06569   Biso      1.000     N          -0.051085           
         N7        1.0000    0.38905   0.59290   0.61290   Biso      1.000     N          -0.229091           
         N8        1.0000    0.93663   0.15620   0.06569   Biso      1.000     N          -0.051028           
         N9        1.0000    0.88905   0.09290   0.11290   Biso      1.000     N          -0.22869  
         N10       1.0000    0.56337   0.84380   0.56569   Biso      1.000     N          -0.05086  
         N11       1.0000    0.61095   0.90710   0.61290   Biso      1.000     N          -0.229209           
         N12       1.0000    0.06337   0.34380   0.06569   Biso      1.000     N          -0.051029           
         N13       1.0000    0.11095   0.40710   0.11290   Biso      1.000     N          -0.228636           
         N14       1.0000    0.56337   0.15620   0.43431   Biso      1.000     N          -0.050943           
         N15       1.0000    0.61095   0.09290   0.38710   Biso      1.000     N          -0.229193           
         N16       1.0000    0.06337   0.65620   0.93431   Biso      1.000     N          -0.051087           
         N17       1.0000    0.11095   0.59290   0.88710   Biso      1.000     N          -0.228629           
         N18       1.0000    0.88905   0.40710   0.11290   Biso      1.000     N          -0.22863  
         N19       1.0000    0.43663   0.34380   0.43431   Biso      1.000     N          -0.050983           
         N20       1.0000    0.93663   0.84380   0.93431   Biso      1.000     N          -0.051103           
         N21       1.0000    0.88905   0.90710   0.88710   Biso      1.000     N          -0.228683           
         N22       1.0000    0.56337   0.34380   0.43431   Biso      1.000     N          -0.050862           
         N23       1.0000    0.61095   0.40710   0.38710   Biso      1.000     N          -0.2291   
         N24       1.0000    0.06337   0.84380   0.93431   Biso      1.000     N          -0.051028           
         N25       1.0000    0.11095   0.90710   0.88710   Biso      1.000     N          -0.22869  
         N26       1.0000    0.43663   0.15620   0.43431   Biso      1.000     N          -0.05086  
         N27       1.0000    0.93663   0.65620   0.93431   Biso      1.000     N          -0.051022           
         N28       1.0000    0.88905   0.59290   0.88710   Biso      1.000     N          -0.228637           
         N29       1.0000    0.43663   0.84380   0.56569   Biso      1.000     N          -0.050853           
         N30       1.0000    0.38905   0.90710   0.61290   Biso      1.000     N          -0.229207           
         N31       1.0000    0.38905   0.40710   0.38710   Biso      1.000     N          -0.229091           
         N32       1.0000    0.38905   0.09290   0.38710   Biso      1.000     N          -0.229209 