
##########################################################################
#               Crystallographic Information Format file
#               Produced by PyCifRW module
#
#  This is a CIF file.  CIF has been adopted by the International
#  Union of Crystallography as the standard for data archiving and
#  transmission.
#
#  For information on this file format, follow the CIF links at
#  http://www.iucr.org
##########################################################################

data_image0

_cell_length_a                          11.5713
_cell_length_b                          11.736
_cell_length_c                          13.619
_cell_angle_alpha                       92.869
_cell_angle_beta                        114.443
_cell_angle_gamma                       107.988
_symmetry_space_group_name_H-M          'P 1'
_symmetry_int_tables_number             1
loop_
  _symmetry_equiv_pos_as_xyz
         'x, y, z' 
loop_
  _atom_site_label
  _atom_site_occupancy
  _atom_site_fract_x
  _atom_site_fract_y
  _atom_site_fract_z
  _atom_site_thermal_displace_type
  _atom_site_B_iso_or_equiv
  _atom_site_type_symbol
  _atom_site_charge
         C1        1.0000    0.58150   0.51700   0.61280   Biso      1.000     C          0.044363  
         C2        1.0000    0.07080   0.42530   0.54500   Biso      1.000     C          -0.121406           
         C3        1.0000    0.41140   0.56100   0.46220   Biso      1.000     C          -0.122058           
         C4        1.0000    0.61460   0.07250   0.99120   Biso      1.000     C          0.058217  
         C5        1.0000    0.50770   0.42190   0.42700   Biso      1.000     C          -0.12384  
         C6        1.0000    0.51290   0.11250   0.97710   Biso      1.000     C          -0.121814           
         C7        1.0000    0.26300   0.84920   0.01580   Biso      1.000     C          0.243291  
         C8        1.0000    0.97280   0.55780   0.29190   Biso      1.000     C          0.250117  
         C9        1.0000    0.60320   0.95910   0.01460   Biso      1.000     C          -0.128553           
         C10       1.0000    0.67090   0.53870   0.73210   Biso      1.000     C          0.245835  
         C11       1.0000    0.39680   0.04090   0.98540   Biso      1.000     C          -0.12856  
         C12       1.0000    0.92920   0.57470   0.45500   Biso      1.000     C          -0.121406           
         C13       1.0000    0.58860   0.43900   0.53780   Biso      1.000     C          -0.122045           
         C14       1.0000    0.05520   0.45360   0.44360   Biso      1.000     C          -0.125313           
         C15       1.0000    0.38540   0.92750   0.00880   Biso      1.000     C          0.058224  
         C16       1.0000    0.49230   0.57810   0.57300   Biso      1.000     C          -0.123825           
         C17       1.0000    0.48710   0.88750   0.02290   Biso      1.000     C          -0.121816           
         C18       1.0000    0.98630   0.52870   0.39860   Biso      1.000     C          0.04564   
         C19       1.0000    0.41850   0.48300   0.38720   Biso      1.000     C          0.044373  
         C20       1.0000    0.94480   0.54640   0.55640   Biso      1.000     C          -0.125313           
         C21       1.0000    0.32910   0.46130   0.26790   Biso      1.000     C          0.245835  
         C22       1.0000    0.02720   0.44220   0.70810   Biso      1.000     C          0.250117  
         C23       1.0000    0.73700   0.15080   0.98420   Biso      1.000     C          0.243287  
         C24       1.0000    0.01370   0.47130   0.60140   Biso      1.000     C          0.04564   
         H1        1.0000    0.67230   0.92930   0.02500   Biso      1.000     H          0.098889  
         H2        1.0000    0.11950   0.37540   0.57500   Biso      1.000     H          0.12001   
         H3        1.0000    0.35120   0.60230   0.43720   Biso      1.000     H          0.120735  
         H4        1.0000    0.51300   0.36830   0.37770   Biso      1.000     H          0.120567  
         H5        1.0000    0.51980   0.18980   0.96140   Biso      1.000     H          0.118463  
         H6        1.0000    0.90770   0.57910   0.59440   Biso      1.000     H          0.118303  
         H7        1.0000    0.88050   0.62460   0.42500   Biso      1.000     H          0.12001   
         H8        1.0000    0.64880   0.39770   0.56280   Biso      1.000     H          0.120734  
         H9        1.0000    0.09230   0.42090   0.40560   Biso      1.000     H          0.118303  
         H10       1.0000    0.48700   0.63170   0.62230   Biso      1.000     H          0.120566  
         H11       1.0000    0.48020   0.81020   0.03860   Biso      1.000     H          0.118464  
         H12       1.0000    0.32770   0.07070   0.97500   Biso      1.000     H          0.09889   
         N1        1.0000    0.69840   0.63630   0.80450   Biso      1.000     N          -0.294858           
         N2        1.0000    0.17030   0.88730   0.02780   Biso      1.000     N          -0.315935           
         N3        1.0000    0.94420   0.64680   0.15760   Biso      1.000     N          -0.099992           
         N4        1.0000    0.98590   0.48950   0.21900   Biso      1.000     N          -0.21589  
         N5        1.0000    0.79000   0.62580   0.90020   Biso      1.000     N          -0.10326  
         N6        1.0000    0.23090   0.72820   0.01070   Biso      1.000     N          -0.225035           
         N7        1.0000    0.07950   0.78710   0.02950   Biso      1.000     N          -0.08615  
         N8        1.0000    0.81490   0.52520   0.88580   Biso      1.000     N          -0.019973           
         N9        1.0000    0.26010   0.53230   0.22020   Biso      1.000     N          -0.224467           
         N10       1.0000    0.11530   0.69270   0.01930   Biso      1.000     N          -0.015954           
         N11       1.0000    0.96740   0.54730   0.13550   Biso      1.000     N          -0.007213           
         N12       1.0000    0.05340   0.34400   0.74330   Biso      1.000     N          -0.293598           
         N13       1.0000    0.73990   0.46770   0.77980   Biso      1.000     N          -0.224445           
         N14       1.0000    0.18510   0.47480   0.11420   Biso      1.000     N          -0.01998  
         N15       1.0000    0.88470   0.30730   0.98070   Biso      1.000     N          -0.016025           
         N16       1.0000    0.92050   0.21290   0.97050   Biso      1.000     N          -0.08614  
         N17       1.0000    0.03260   0.45270   0.86450   Biso      1.000     N          -0.007284           
         N18       1.0000    0.21000   0.37420   0.09980   Biso      1.000     N          -0.103252           
         N19       1.0000    0.01410   0.51050   0.78100   Biso      1.000     N          -0.21586  
         N20       1.0000    0.05580   0.35320   0.84240   Biso      1.000     N          -0.099919           
         N21       1.0000    0.82970   0.11270   0.97220   Biso      1.000     N          -0.315905           
         N22       1.0000    0.30160   0.36370   0.19550   Biso      1.000     N          -0.294835           
         N23       1.0000    0.94660   0.65600   0.25670   Biso      1.000     N          -0.293566           
         N24       1.0000    0.76910   0.27180   0.98930   Biso      1.000     N          -0.225006           
         Zn1       1.0000    0.00000   0.50000   0.00000   Biso      1.000     Zn          0.463431  
         Zn2       1.0000    0.89561   0.76608   0.04639   Biso      1.000     Zn          0.829099  
         Zn3       1.0000    0.10439   0.23392   0.95361   Biso      1.000     Zn          0.829091 