
##########################################################################
#               Crystallographic Information Format file
#               Produced by PyCifRW module
#
#  This is a CIF file.  CIF has been adopted by the International
#  Union of Crystallography as the standard for data archiving and
#  transmission.
#
#  For information on this file format, follow the CIF links at
#  http://www.iucr.org
##########################################################################

data_image0

_cell_length_a                          8.603
_cell_length_b                          19.2774
_cell_length_c                          19.2774
_cell_angle_alpha                       62.1728
_cell_angle_beta                        81.445
_cell_angle_gamma                       98.555
_symmetry_space_group_name_H-M          'P 1'
_symmetry_int_tables_number             1
loop_
  _symmetry_equiv_pos_as_xyz
         'x, y, z' 
loop_
  _atom_site_label
  _atom_site_occupancy
  _atom_site_fract_x
  _atom_site_fract_y
  _atom_site_fract_z
  _atom_site_thermal_displace_type
  _atom_site_B_iso_or_equiv
  _atom_site_type_symbol
  _atom_site_charge
         C1        1.0000    0.38440   0.92220   0.54610   Biso      1.000     C          0.035272000000000005          
         C2        1.0000    0.14330   0.40990   0.43660   Biso      1.000     C          0.271054  
         C3        1.0000    0.61690   0.01780   0.43260   Biso      1.000     C          -0.100975           
         C4        1.0000    0.49070   0.05720   0.52480   Biso      1.000     C          -0.125001           
         C5        1.0000    0.61560   0.07780   0.45390   Biso      1.000     C          0.035257  
         C6        1.0000    0.73340   0.15350   0.40990   Biso      1.000     C          0.26802800000000004           
         C7        1.0000    0.59910   0.54960   0.01780   Biso      1.000     C          -0.103394           
         C8        1.0000    0.43350   0.41800   0.05720   Biso      1.000     C          -0.124752           
         C9        1.0000    0.53780   0.46830   0.07780   Biso      1.000     C          0.037927999999999996          
         C10       1.0000    0.57990   0.43660   0.15350   Biso      1.000     C          0.267313  
         C11       1.0000    0.04950   0.43260   0.54960   Biso      1.000     C          -0.10116900000000001          
         C12       1.0000    0.42010   0.56340   0.84650   Biso      1.000     C          0.267298  
         C13       1.0000    0.46220   0.53170   0.92220   Biso      1.000     C          0.037943  
         C14       1.0000    0.06950   0.45390   0.46830   Biso      1.000     C          0.035004  
         C15       1.0000    0.56650   0.58200   0.94280   Biso      1.000     C          -0.12473599999999999          
         C16       1.0000    0.26660   0.84650   0.59010   Biso      1.000     C          0.26800999999999997           
         C17       1.0000    0.50930   0.94280   0.47520   Biso      1.000     C          -0.12498499999999998          
         C18       1.0000    0.38310   0.98220   0.56740   Biso      1.000     C          -0.100972           
         C19       1.0000    0.85670   0.59010   0.56340   Biso      1.000     C          0.271039  
         C20       1.0000    0.93050   0.54610   0.53170   Biso      1.000     C          0.035019  
         C21       1.0000    0.98450   0.47520   0.58200   Biso      1.000     C          -0.124404           
         C22       1.0000    0.95050   0.56740   0.45040   Biso      1.000     C          -0.10116499999999999          
         C23       1.0000    0.40090   0.45040   0.98220   Biso      1.000     C          -0.10338699999999999          
         C24       1.0000    0.01550   0.52480   0.41800   Biso      1.000     C          -0.124418           
         Cl1       1.0000    0.68896   0.80890   0.61262   Biso      1.000     Cl          -0.44923900000000005          
         Cl2       1.0000    0.11994   0.42152   0.19110   Biso      1.000     Cl          -0.448718           
         Cl3       1.0000    0.31104   0.19110   0.38738   Biso      1.000     Cl          -0.449208           
         Cl4       1.0000    0.69842   0.38738   0.42152   Biso      1.000     Cl          -0.44886899999999996          
         Cl5       1.0000    0.88006   0.57848   0.80890   Biso      1.000     Cl          -0.448747           
         Cl6       1.0000    0.30158   0.61262   0.57848   Biso      1.000     Cl          -0.448903           
         H1        1.0000    0.97520   0.45870   0.63630   Biso      1.000     H          0.11253900000000001           
         H2        1.0000    0.30540   0.97070   0.61290   Biso      1.000     H          0.119728  
         H3        1.0000    0.51650   0.90500   0.45870   Biso      1.000     H          0.112794  
         H4        1.0000    0.33470   0.41640   0.97070   Biso      1.000     H          0.11950699999999999           
         H5        1.0000    0.61150   0.63630   0.90500   Biso      1.000     H          0.11265499999999999           
         H6        1.0000    0.08170   0.38710   0.58360   Biso      1.000     H          0.11865099999999999           
         H7        1.0000    0.02480   0.54130   0.36370   Biso      1.000     H          0.112541  
         H8        1.0000    0.69460   0.02930   0.38710   Biso      1.000     H          0.119736  
         H9        1.0000    0.48350   0.09500   0.54130   Biso      1.000     H          0.112798  
         H10       1.0000    0.66530   0.58360   0.02930   Biso      1.000     H          0.11951800000000001           
         H11       1.0000    0.38850   0.36370   0.09500   Biso      1.000     H          0.11266   
         H12       1.0000    0.91830   0.61290   0.41640   Biso      1.000     H          0.11863299999999999           
         Mn1       1.0000    0.50067   0.27957   0.41720   Biso      1.000     Mn          0.731544  
         Mn2       1.0000    0.91787   0.41720   0.30323   Biso      1.000     Mn          0.7306590000000001  
         Mn3       1.0000    0.77890   0.69677   0.72043   Biso      1.000     Mn          0.731055  
         Mn4       1.0000    0.49933   0.72043   0.58280   Biso      1.000     Mn          0.731448  
         Mn5       1.0000    0.22110   0.30323   0.27957   Biso      1.000     Mn          0.731122  
         Mn6       1.0000    0.08213   0.58280   0.69677   Biso      1.000     Mn          0.730579  
         N1        1.0000    0.85470   0.27830   0.35590   Biso      1.000     N          -0.061347000000000006         
         N2        1.0000    0.48700   0.37460   0.22380   Biso      1.000     N          -0.25450500000000004          
         N3        1.0000    0.57640   0.36580   0.27830   Biso      1.000     N          -0.058772000000000005         
         N4        1.0000    0.71470   0.41970   0.23920   Biso      1.000     N          -0.035727999999999996         
         N5        1.0000    0.74280   0.62740   0.53470   Biso      1.000     N          -0.242633           
         N6        1.0000    0.70500   0.65890   0.58030   Biso      1.000     N          -0.036441           
         N7        1.0000    0.78940   0.64410   0.63420   Biso      1.000     N          -0.058025           
         N8        1.0000    0.88760   0.59840   0.62540   Biso      1.000     N          -0.256619           
         N9        1.0000    0.11540   0.83790   0.62740   Biso      1.000     N          -0.24279299999999998          
         N10       1.0000    0.04610   0.76080   0.65890   Biso      1.000     N          -0.033316000000000005         
         N11       1.0000    0.71080   0.22380   0.40160   Biso      1.000     N          -0.254706           
         N12       1.0000    0.14530   0.72170   0.64410   Biso      1.000     N          -0.06129299999999999          
         N13       1.0000    0.27750   0.53470   0.83790   Biso      1.000     N          -0.24236100000000002          
         N14       1.0000    0.28530   0.58030   0.76080   Biso      1.000     N          -0.035718           
         N15       1.0000    0.42360   0.63420   0.72170   Biso      1.000     N          -0.058736000000000003         
         N16       1.0000    0.51300   0.62540   0.77620   Biso      1.000     N          -0.254488           
         N17       1.0000    0.25720   0.37260   0.46530   Biso      1.000     N          -0.24261799999999997          
         N18       1.0000    0.29500   0.34110   0.41970   Biso      1.000     N          -0.036453           
         N19       1.0000    0.21060   0.35590   0.36580   Biso      1.000     N          -0.058035           
         N20       1.0000    0.72250   0.46530   0.16210   Biso      1.000     N          -0.242313           
         N21       1.0000    0.88460   0.16210   0.37260   Biso      1.000     N          -0.242783           
         N22       1.0000    0.95390   0.23920   0.34110   Biso      1.000     N          -0.033283           
         N23       1.0000    0.28920   0.77620   0.59840   Biso      1.000     N          -0.254698           
         N24       1.0000    0.11240   0.40160   0.37460   Biso      1.000     N          -0.256627 