
##########################################################################
#               Crystallographic Information Format file
#               Produced by PyCifRW module
#
#  This is a CIF file.  CIF has been adopted by the International
#  Union of Crystallography as the standard for data archiving and
#  transmission.
#
#  For information on this file format, follow the CIF links at
#  http://www.iucr.org
##########################################################################

data_image0

_cell_length_a                          9.4902
_cell_length_b                          13.9123
_cell_length_c                          16.7437
_cell_angle_alpha                       83.044
_cell_angle_beta                        75.802
_cell_angle_gamma                       88.309
_symmetry_space_group_name_H-M          'P 1'
_symmetry_int_tables_number             1
loop_
  _symmetry_equiv_pos_as_xyz
         'x, y, z' 
loop_
  _atom_site_label
  _atom_site_occupancy
  _atom_site_fract_x
  _atom_site_fract_y
  _atom_site_fract_z
  _atom_site_thermal_displace_type
  _atom_site_B_iso_or_equiv
  _atom_site_type_symbol
  _atom_site_charge
         C1        1.0000    0.61530   0.66610   0.26580   Biso      1.000     C          -0.154532           
         C2        1.0000    0.16100   0.36970   0.83890   Biso      1.000     C          -0.087526           
         C3        1.0000    0.18670   0.33970   0.91710   Biso      1.000     C          0.195933  
         C4        1.0000    0.27150   0.25600   0.93530   Biso      1.000     C          -0.19154  
         C5        1.0000    0.26880   0.24810   0.01620   Biso      1.000     C          -0.195315           
         C6        1.0000    0.18300   0.32690   0.05020   Biso      1.000     C          0.196297  
         C7        1.0000    0.99950   0.04710   0.52000   Biso      1.000     C          0.525372  
         C8        1.0000    0.52060   0.84280   0.42400   Biso      1.000     C          0.64979   
         C9        1.0000    0.83040   0.75040   0.26260   Biso      1.000     C          -0.153103           
         C10       1.0000    0.75550   0.80210   0.32610   Biso      1.000     C          -0.093531           
         C11       1.0000    0.60890   0.78670   0.35900   Biso      1.000     C          -0.035513           
         C12       1.0000    0.54010   0.71870   0.32830   Biso      1.000     C          -0.090043           
         C13       1.0000    0.76320   0.68290   0.23120   Biso      1.000     C          0.111404  
         C14       1.0000    0.60440   0.90560   0.63080   Biso      1.000     C          0.673978  
         C15       1.0000    0.63620   0.72370   0.81410   Biso      1.000     C          -0.151504           
         C16       1.0000    0.66650   0.84440   0.69530   Biso      1.000     C          -0.031519           
         C17       1.0000    0.07350   0.44900   0.82090   Biso      1.000     C          0.192074  
         C18       1.0000    0.05000   0.48250   0.74060   Biso      1.000     C          -0.184115           
         C19       1.0000    0.96380   0.56040   0.74840   Biso      1.000     C          -0.190019           
         C20       1.0000    0.93310   0.57960   0.83370   Biso      1.000     C          0.194736  
         C21       1.0000    0.00050   0.95290   0.48000   Biso      1.000     C          0.525372  
         C22       1.0000    0.47940   0.15720   0.57600   Biso      1.000     C          0.64979   
         C23       1.0000    0.16960   0.24960   0.73740   Biso      1.000     C          -0.153103           
         C24       1.0000    0.24450   0.19790   0.67390   Biso      1.000     C          -0.093532           
         C25       1.0000    0.39110   0.21330   0.64100   Biso      1.000     C          -0.035513           
         C26       1.0000    0.45990   0.28130   0.67170   Biso      1.000     C          -0.090043           
         C27       1.0000    0.38470   0.33390   0.73420   Biso      1.000     C          -0.154532           
         C28       1.0000    0.81100   0.84680   0.69250   Biso      1.000     C          -0.09125  
         C29       1.0000    0.23680   0.31710   0.76880   Biso      1.000     C          0.111404  
         C30       1.0000    0.36380   0.27630   0.18590   Biso      1.000     C          -0.151505           
         C31       1.0000    0.42210   0.21870   0.24380   Biso      1.000     C          -0.093727           
         C32       1.0000    0.33350   0.15560   0.30470   Biso      1.000     C          -0.031519           
         C33       1.0000    0.18900   0.15320   0.30750   Biso      1.000     C          -0.09125  
         C34       1.0000    0.12940   0.21350   0.25140   Biso      1.000     C          -0.167428           
         C35       1.0000    0.21650   0.27720   0.19100   Biso      1.000     C          0.112133  
         C36       1.0000    0.15290   0.34440   0.13280   Biso      1.000     C          -0.090819           
         C37       1.0000    0.39560   0.09440   0.36920   Biso      1.000     C          0.673978  
         C38       1.0000    0.87060   0.78650   0.74860   Biso      1.000     C          -0.167428           
         C39       1.0000    0.57790   0.78130   0.75620   Biso      1.000     C          -0.093727           
         C40       1.0000    0.84710   0.65560   0.86720   Biso      1.000     C          -0.090819           
         C41       1.0000    0.73120   0.75190   0.98380   Biso      1.000     C          -0.195338           
         C42       1.0000    0.72850   0.74400   0.06470   Biso      1.000     C          -0.191516           
         C43       1.0000    0.81330   0.66030   0.08290   Biso      1.000     C          0.19593   
         C44       1.0000    0.83900   0.63030   0.16110   Biso      1.000     C          -0.087527           
         C45       1.0000    0.81700   0.67310   0.94980   Biso      1.000     C          0.196299  
         C46       1.0000    0.95000   0.51750   0.25940   Biso      1.000     C          -0.184115           
         C47       1.0000    0.92650   0.55100   0.17910   Biso      1.000     C          0.192074  
         C48       1.0000    0.06690   0.42040   0.16630   Biso      1.000     C          0.194736  
         C49       1.0000    0.78350   0.72280   0.80900   Biso      1.000     C          0.112133  
         C50       1.0000    0.03620   0.43960   0.25160   Biso      1.000     C          -0.190019           
         H1        1.0000    0.68490   0.80060   0.95440   Biso      1.000     H          0.128423  
         H2        1.0000    0.93130   0.76220   0.24030   Biso      1.000     H          0.119558  
         H3        1.0000    0.91120   0.54560   0.30920   Biso      1.000     H          0.14293   
         H4        1.0000    0.07100   0.40330   0.29460   Biso      1.000     H          0.141534  
         H5        1.0000    0.67950   0.78600   0.10320   Biso      1.000     H          0.127064  
         H6        1.0000    0.97180   0.78930   0.74510   Biso      1.000     H          0.103188  
         H7        1.0000    0.87240   0.89050   0.65160   Biso      1.000     H          0.104084  
         H8        1.0000    0.47720   0.77750   0.75840   Biso      1.000     H          0.114431  
         H9        1.0000    0.57340   0.68430   0.85790   Biso      1.000     H          0.121083  
         H10       1.0000    0.56600   0.61850   0.24670   Biso      1.000     H          0.120228  
         H11       1.0000    0.43890   0.70770   0.35030   Biso      1.000     H          0.123178  
         H12       1.0000    0.80540   0.84790   0.34680   Biso      1.000     H          0.111861  
         H13       1.0000    0.99760   0.49340   0.07190   Biso      1.000     H          0.289585  
         H14       1.0000    0.32050   0.21400   0.89680   Biso      1.000     H          0.127065  
         H15       1.0000    0.08880   0.45440   0.69080   Biso      1.000     H          0.14293   
         H16       1.0000    0.31510   0.19940   0.04560   Biso      1.000     H          0.128421  
         H17       1.0000    0.19460   0.15210   0.65320   Biso      1.000     H          0.111861  
         H18       1.0000    0.56110   0.29230   0.64970   Biso      1.000     H          0.123178  
         H19       1.0000    0.43400   0.38150   0.75330   Biso      1.000     H          0.120228  
         H20       1.0000    0.42660   0.31570   0.14210   Biso      1.000     H          0.121083  
         H21       1.0000    0.06870   0.23780   0.75970   Biso      1.000     H          0.119558  
         H22       1.0000    0.12760   0.10950   0.34840   Biso      1.000     H          0.104084  
         H23       1.0000    0.02820   0.21070   0.25490   Biso      1.000     H          0.103188  
         H24       1.0000    0.00240   0.50660   0.92810   Biso      1.000     H          0.289584  
         H25       1.0000    0.92900   0.59670   0.70540   Biso      1.000     H          0.141534  
         H26       1.0000    0.52280   0.22250   0.24160   Biso      1.000     H          0.11443   
         N1        1.0000    0.86630   0.61820   0.01190   Biso      1.000     N          -0.440504           
         N2        1.0000    0.99710   0.48940   0.12480   Biso      1.000     N          -0.292157           
         N3        1.0000    0.13370   0.38180   0.98810   Biso      1.000     N          -0.440504           
         N4        1.0000    0.00290   0.51060   0.87520   Biso      1.000     N          -0.292157           
         O1        1.0000    0.42240   0.08550   0.55500   Biso      1.000     O          -0.757528           
         O2        1.0000    0.08530   0.05360   0.56480   Biso      1.000     O          -0.618853           
         O3        1.0000    0.60590   0.18350   0.54320   Biso      1.000     O          -0.607475           
         O4        1.0000    0.52470   0.11390   0.37070   Biso      1.000     O          -0.73112  
         O5        1.0000    0.31450   0.03070   0.41610   Biso      1.000     O          -0.624729           
         O6        1.0000    0.91210   0.11140   0.50270   Biso      1.000     O          -0.615922           
         O7        1.0000    0.91470   0.94640   0.43520   Biso      1.000     O          -0.618853           
         O8        1.0000    0.57760   0.91450   0.44500   Biso      1.000     O          -0.757528           
         O9        1.0000    0.47530   0.88610   0.62930   Biso      1.000     O          -0.731119           
         O10       1.0000    0.68550   0.96930   0.58390   Biso      1.000     O          -0.624729           
         O11       1.0000    0.08790   0.88860   0.49730   Biso      1.000     O          -0.615922           
         O12       1.0000    0.39410   0.81650   0.45680   Biso      1.000     O          -0.607475           
         Pr1       1.0000    0.29460   0.93870   0.55327   Biso      1.000     Pr          2.090911  
         Pr2       1.0000    0.70540   0.06130   0.44673   Biso      1.000     Pr          2.090911 