
##########################################################################
#               Crystallographic Information Format file
#               Produced by PyCifRW module
#
#  This is a CIF file.  CIF has been adopted by the International
#  Union of Crystallography as the standard for data archiving and
#  transmission.
#
#  For information on this file format, follow the CIF links at
#  http://www.iucr.org
##########################################################################

data_image0

_cell_length_a                          18.8313
_cell_length_b                          18.8313
_cell_length_c                          18.8313
_cell_angle_alpha                       61.456
_cell_angle_beta                        61.456
_cell_angle_gamma                       61.456
_symmetry_space_group_name_H-M          'P 1'
_symmetry_int_tables_number             1
loop_
  _symmetry_equiv_pos_as_xyz
         'x, y, z' 
loop_
  _atom_site_label
  _atom_site_occupancy
  _atom_site_fract_x
  _atom_site_fract_y
  _atom_site_fract_z
  _atom_site_thermal_displace_type
  _atom_site_B_iso_or_equiv
  _atom_site_type_symbol
  _atom_site_charge
         C1        1.0000    0.99629   0.19309   0.49629   Biso      1.000     C          0.016973  
         C2        1.0000    0.30924   0.57694   0.93154   Biso      1.000     C          0.036509  
         C3        1.0000    0.30691   0.50371   0.00371   Biso      1.000     C          0.016845  
         C4        1.0000    0.69987   0.86487   0.36437   Biso      1.000     C          -0.155743           
         C5        1.0000    0.73209   0.84419   0.42699   Biso      1.000     C          -0.107382           
         C6        1.0000    0.67602   0.85162   0.50752   Biso      1.000     C          -0.016568           
         C7        1.0000    0.58894   0.88004   0.52394   Biso      1.000     C          -0.097695           
         C8        1.0000    0.55650   0.90010   0.46210   Biso      1.000     C          -0.144906           
         C9        1.0000    0.61039   0.89459   0.38189   Biso      1.000     C          0.071172  
         C10       1.0000    0.71257   0.83835   0.57091   Biso      1.000     C          0.582709  
         C11       1.0000    0.57694   0.93154   0.30924   Biso      1.000     C          0.037501  
         C12       1.0000    0.50371   0.00371   0.30691   Biso      1.000     C          0.017629  
         C13       1.0000    0.57091   0.71257   0.83835   Biso      1.000     C          0.581477  
         C14       1.0000    0.76791   0.07301   0.65581   Biso      1.000     C          -0.107622           
         C15       1.0000    0.19309   0.49629   0.99629   Biso      1.000     C          0.017077  
         C16       1.0000    0.19076   0.56846   0.92306   Biso      1.000     C          0.036406  
         C17       1.0000    0.92909   0.66165   0.78743   Biso      1.000     C          0.58283   
         C18       1.0000    0.11811   0.60541   0.88961   Biso      1.000     C          0.072152  
         C19       1.0000    0.03790   0.59990   0.94350   Biso      1.000     C          -0.144776           
         C20       1.0000    0.97606   0.61996   0.91106   Biso      1.000     C          -0.097983           
         C21       1.0000    0.99248   0.64838   0.82398   Biso      1.000     C          -0.017309           
         C22       1.0000    0.07301   0.65581   0.76791   Biso      1.000     C          -0.10773  
         C23       1.0000    0.13563   0.63513   0.80013   Biso      1.000     C          -0.155934           
         C24       1.0000    0.49629   0.99629   0.69309   Biso      1.000     C          0.016704  
         C25       1.0000    0.42306   0.06846   0.69076   Biso      1.000     C          0.036496  
         C26       1.0000    0.80013   0.13563   0.63513   Biso      1.000     C          -0.15586  
         C27       1.0000    0.38189   0.61039   0.89459   Biso      1.000     C          0.07181   
         C28       1.0000    0.46210   0.55650   0.90010   Biso      1.000     C          -0.14507  
         C29       1.0000    0.52394   0.58894   0.88004   Biso      1.000     C          -0.098489           
         C30       1.0000    0.88961   0.11811   0.60541   Biso      1.000     C          0.072065  
         C31       1.0000    0.78743   0.92909   0.66165   Biso      1.000     C          0.582744  
         C32       1.0000    0.92306   0.19076   0.56846   Biso      1.000     C          0.036502  
         C33       1.0000    0.82398   0.99248   0.64838   Biso      1.000     C          -0.017051           
         C34       1.0000    0.63513   0.80013   0.13563   Biso      1.000     C          -0.15576  
         C35       1.0000    0.65581   0.76791   0.07301   Biso      1.000     C          -0.107412           
         C36       1.0000    0.64838   0.82398   0.99248   Biso      1.000     C          -0.016852           
         C37       1.0000    0.61996   0.91106   0.97606   Biso      1.000     C          -0.097986           
         C38       1.0000    0.59990   0.94350   0.03790   Biso      1.000     C          -0.144918           
         C39       1.0000    0.60541   0.88961   0.11811   Biso      1.000     C          0.070927  
         C40       1.0000    0.66165   0.78743   0.92909   Biso      1.000     C          0.581453  
         C41       1.0000    0.56846   0.92306   0.19076   Biso      1.000     C          0.037564  
         C42       1.0000    0.49629   0.99629   0.19309   Biso      1.000     C          0.017646  
         C43       1.0000    0.86487   0.36437   0.69987   Biso      1.000     C          -0.155914           
         C44       1.0000    0.84419   0.42699   0.73209   Biso      1.000     C          -0.107697           
         C45       1.0000    0.85162   0.50752   0.67602   Biso      1.000     C          -0.01708  
         C46       1.0000    0.88004   0.52394   0.58894   Biso      1.000     C          -0.098183           
         C47       1.0000    0.90010   0.46210   0.55650   Biso      1.000     C          -0.144845           
         C48       1.0000    0.89459   0.38189   0.61039   Biso      1.000     C          0.072043  
         C49       1.0000    0.83835   0.57091   0.71257   Biso      1.000     C          0.582663  
         C50       1.0000    0.93154   0.30924   0.57694   Biso      1.000     C          0.036498  
         C51       1.0000    0.00371   0.30691   0.50371   Biso      1.000     C          0.017261  
         C52       1.0000    0.36437   0.69987   0.86487   Biso      1.000     C          -0.155903           
         C53       1.0000    0.42699   0.73209   0.84419   Biso      1.000     C          -0.107764           
         C54       1.0000    0.50752   0.67602   0.85162   Biso      1.000     C          -0.017456           
         C55       1.0000    0.28743   0.16165   0.42909   Biso      1.000     C          0.583022  
         C56       1.0000    0.38961   0.10541   0.61811   Biso      1.000     C          0.071992  
         C57       1.0000    0.44350   0.09990   0.53790   Biso      1.000     C          -0.145126           
         C58       1.0000    0.41106   0.11996   0.47606   Biso      1.000     C          -0.09906  
         C59       1.0000    0.36487   0.19987   0.86437   Biso      1.000     C          -0.155827           
         C60       1.0000    0.00371   0.80691   0.50371   Biso      1.000     C          0.016678  
         C61       1.0000    0.07694   0.80924   0.43154   Biso      1.000     C          0.036839  
         C62       1.0000    0.21257   0.07091   0.33835   Biso      1.000     C          0.583171  
         C63       1.0000    0.11039   0.88189   0.39459   Biso      1.000     C          0.071924  
         C64       1.0000    0.05650   0.96210   0.40010   Biso      1.000     C          -0.144949           
         C65       1.0000    0.08894   0.02394   0.38004   Biso      1.000     C          -0.097439           
         C66       1.0000    0.17602   0.00752   0.35162   Biso      1.000     C          -0.016817           
         C67       1.0000    0.23209   0.92699   0.34419   Biso      1.000     C          -0.108113           
         C68       1.0000    0.19987   0.86437   0.36487   Biso      1.000     C          -0.155813           
         C69       1.0000    0.80691   0.50371   0.00371   Biso      1.000     C          0.016808  
         C70       1.0000    0.80924   0.43154   0.07694   Biso      1.000     C          0.036957  
         C71       1.0000    0.07091   0.33835   0.21257   Biso      1.000     C          0.581399  
         C72       1.0000    0.88189   0.39459   0.11039   Biso      1.000     C          0.07124   
         C73       1.0000    0.96210   0.40010   0.05650   Biso      1.000     C          -0.145454           
         C74       1.0000    0.02394   0.38004   0.08894   Biso      1.000     C          -0.098814           
         C75       1.0000    0.00752   0.35162   0.17602   Biso      1.000     C          -0.016218           
         C76       1.0000    0.92699   0.34419   0.23209   Biso      1.000     C          -0.107999           
         C77       1.0000    0.86437   0.36487   0.19987   Biso      1.000     C          -0.156441           
         C78       1.0000    0.60875   0.89125   0.25000   Biso      1.000     C          -0.165505           
         C79       1.0000    0.25000   0.60875   0.89125   Biso      1.000     C          -0.167313           
         C80       1.0000    0.89125   0.25000   0.60875   Biso      1.000     C          -0.167227           
         C81       1.0000    0.39125   0.10875   0.75000   Biso      1.000     C          -0.167743           
         C82       1.0000    0.75000   0.39125   0.10875   Biso      1.000     C          -0.167475           
         C83       1.0000    0.10875   0.75000   0.39125   Biso      1.000     C          -0.16688  
         C84       1.0000    0.34419   0.23209   0.92699   Biso      1.000     C          -0.107483           
         C85       1.0000    0.94350   0.03790   0.59990   Biso      1.000     C          -0.145138           
         C86       1.0000    0.35162   0.17602   0.00752   Biso      1.000     C          -0.016939           
         C87       1.0000    0.40010   0.05650   0.96210   Biso      1.000     C          -0.145155           
         C88       1.0000    0.32398   0.14838   0.49248   Biso      1.000     C          -0.016963           
         C89       1.0000    0.26791   0.15581   0.57301   Biso      1.000     C          -0.107483           
         C90       1.0000    0.30013   0.13513   0.63563   Biso      1.000     C          -0.155853           
         C91       1.0000    0.69309   0.49629   0.99629   Biso      1.000     C          0.016272  
         C92       1.0000    0.69076   0.42306   0.06846   Biso      1.000     C          0.036433  
         C93       1.0000    0.42909   0.28743   0.16165   Biso      1.000     C          0.582875  
         C94       1.0000    0.61811   0.38961   0.10541   Biso      1.000     C          0.072332  
         C95       1.0000    0.53790   0.44350   0.09990   Biso      1.000     C          -0.145036           
         C96       1.0000    0.47606   0.41106   0.11996   Biso      1.000     C          -0.097597           
         C97       1.0000    0.49248   0.32398   0.14838   Biso      1.000     C          -0.017041           
         C98       1.0000    0.57301   0.26791   0.15581   Biso      1.000     C          -0.108174           
         C99       1.0000    0.63563   0.30013   0.13513   Biso      1.000     C          -0.155868           
         C100      1.0000    0.99629   0.69309   0.49629   Biso      1.000     C          0.016887  
         C101      1.0000    0.06846   0.69076   0.42306   Biso      1.000     C          0.037429  
         C102      1.0000    0.16165   0.42909   0.28743   Biso      1.000     C          0.581364  
         C103      1.0000    0.10541   0.61811   0.38961   Biso      1.000     C          0.070817  
         C104      1.0000    0.09990   0.53790   0.44350   Biso      1.000     C          -0.1454   
         C105      1.0000    0.11996   0.47606   0.41106   Biso      1.000     C          -0.098623           
         C106      1.0000    0.14838   0.49248   0.32398   Biso      1.000     C          -0.015955           
         C107      1.0000    0.15581   0.57301   0.26791   Biso      1.000     C          -0.107923           
         C108      1.0000    0.13513   0.63563   0.30013   Biso      1.000     C          -0.156363           
         C109      1.0000    0.50371   0.00371   0.80691   Biso      1.000     C          0.016349  
         C110      1.0000    0.43154   0.07694   0.80924   Biso      1.000     C          0.036549  
         C111      1.0000    0.33835   0.21257   0.07091   Biso      1.000     C          0.582708  
         C112      1.0000    0.39459   0.11039   0.88189   Biso      1.000     C          0.071984  
         C113      1.0000    0.38004   0.08894   0.02394   Biso      1.000     C          -0.099027           
         C114      1.0000    0.91106   0.97606   0.61996   Biso      1.000     C          -0.098273           
         Fe1       1.0000    0.34882   0.15118   0.25000   Biso      1.000     Fe          0.886913  
         Fe2       1.0000    0.25000   0.34882   0.15118   Biso      1.000     Fe          0.834202  
         Fe3       1.0000    0.15118   0.25000   0.34882   Biso      1.000     Fe          0.840512  
         Fe4       1.0000    0.65118   0.84882   0.75000   Biso      1.000     Fe          0.849049  
         Fe5       1.0000    0.75000   0.65118   0.84882   Biso      1.000     Fe          0.851672  
         Fe6       1.0000    0.84882   0.75000   0.65118   Biso      1.000     Fe          0.867842  
         H1        1.0000    0.15805   0.75000   0.34195   Biso      1.000     H          0.126346  
         H2        1.0000    0.61410   0.94910   0.92180   Biso      1.000     H          0.117819  
         H3        1.0000    0.67490   0.70800   0.08470   Biso      1.000     H          0.121797  
         H4        1.0000    0.64110   0.76230   0.18990   Biso      1.000     H          0.117391  
         H5        1.0000    0.01890   0.15200   0.46890   Biso      1.000     H          0.098123  
         H6        1.0000    0.00360   0.02510   0.58200   Biso      1.000     H          0.118943  
         H7        1.0000    0.76230   0.18990   0.64110   Biso      1.000     H          0.117398  
         H8        1.0000    0.70800   0.08470   0.67490   Biso      1.000     H          0.121635  
         H9        1.0000    0.58200   0.00360   0.02510   Biso      1.000     H          0.118921  
         H10       1.0000    0.15200   0.46890   0.01890   Biso      1.000     H          0.098234  
         H11       1.0000    0.02510   0.58200   0.00360   Biso      1.000     H          0.11921   
         H12       1.0000    0.92180   0.61410   0.94910   Biso      1.000     H          0.117704  
         H13       1.0000    0.94910   0.92180   0.61410   Biso      1.000     H          0.117445  
         H14       1.0000    0.46890   0.01890   0.15200   Biso      1.000     H          0.098111  
         H15       1.0000    0.91800   0.47490   0.49640   Biso      1.000     H          0.119172  
         H16       1.0000    0.88590   0.57820   0.55090   Biso      1.000     H          0.117486  
         H17       1.0000    0.08470   0.67490   0.70800   Biso      1.000     H          0.12155   
         H18       1.0000    0.03110   0.34800   0.48110   Biso      1.000     H          0.098239  
         H19       1.0000    0.31010   0.73770   0.85890   Biso      1.000     H          0.117375  
         H20       1.0000    0.41530   0.79200   0.82510   Biso      1.000     H          0.121572  
         H21       1.0000    0.57820   0.55090   0.88590   Biso      1.000     H          0.11757   
         H22       1.0000    0.47490   0.49640   0.91800   Biso      1.000     H          0.118922  
         H23       1.0000    0.34800   0.48110   0.03110   Biso      1.000     H          0.098127  
         H24       1.0000    0.73770   0.85890   0.31010   Biso      1.000     H          0.11742   
         H25       1.0000    0.79200   0.82510   0.41530   Biso      1.000     H          0.121788  
         H26       1.0000    0.55090   0.88590   0.57820   Biso      1.000     H          0.117908  
         H27       1.0000    0.49640   0.91800   0.47490   Biso      1.000     H          0.118964  
         H28       1.0000    0.48110   0.03110   0.34800   Biso      1.000     H          0.098113  
         H29       1.0000    0.82510   0.41530   0.79200   Biso      1.000     H          0.121614  
         H30       1.0000    0.18990   0.64110   0.76230   Biso      1.000     H          0.117376  
         H31       1.0000    0.85890   0.31010   0.73770   Biso      1.000     H          0.117365  
         H32       1.0000    0.50360   0.08200   0.52510   Biso      1.000     H          0.118877  
         H33       1.0000    0.98110   0.84800   0.53110   Biso      1.000     H          0.097914  
         H34       1.0000    0.99640   0.97490   0.41800   Biso      1.000     H          0.119064  
         H35       1.0000    0.05090   0.07820   0.38590   Biso      1.000     H          0.117889  
         H36       1.0000    0.29200   0.91530   0.32510   Biso      1.000     H          0.121439  
         H37       1.0000    0.23770   0.81010   0.35890   Biso      1.000     H          0.117383  
         H38       1.0000    0.84800   0.53110   0.98110   Biso      1.000     H          0.09781   
         H39       1.0000    0.97490   0.41800   0.99640   Biso      1.000     H          0.118664  
         H40       1.0000    0.07820   0.38590   0.05090   Biso      1.000     H          0.117451  
         H41       1.0000    0.91530   0.32510   0.29200   Biso      1.000     H          0.121451  
         H42       1.0000    0.81010   0.35890   0.23770   Biso      1.000     H          0.117081  
         H43       1.0000    0.65805   0.84195   0.25000   Biso      1.000     H          0.126734  
         H44       1.0000    0.25000   0.65805   0.84195   Biso      1.000     H          0.12609   
         H45       1.0000    0.84195   0.25000   0.65805   Biso      1.000     H          0.126113  
         H46       1.0000    0.51890   0.96890   0.65200   Biso      1.000     H          0.097688  
         H47       1.0000    0.75000   0.34195   0.15805   Biso      1.000     H          0.126056  
         H48       1.0000    0.35890   0.23770   0.81010   Biso      1.000     H          0.117426  
         H49       1.0000    0.32510   0.29200   0.91530   Biso      1.000     H          0.121656  
         H50       1.0000    0.34195   0.15805   0.75000   Biso      1.000     H          0.126008  
         H51       1.0000    0.41800   0.99640   0.97490   Biso      1.000     H          0.11887   
         H52       1.0000    0.44910   0.11410   0.42180   Biso      1.000     H          0.11714   
         H53       1.0000    0.20800   0.17490   0.58470   Biso      1.000     H          0.12163   
         H54       1.0000    0.26230   0.14110   0.68990   Biso      1.000     H          0.117429  
         H55       1.0000    0.65200   0.51890   0.96890   Biso      1.000     H          0.097657  
         H56       1.0000    0.52510   0.50360   0.08200   Biso      1.000     H          0.119061  
         H57       1.0000    0.42180   0.44910   0.11410   Biso      1.000     H          0.117812  
         H58       1.0000    0.68990   0.26230   0.14110   Biso      1.000     H          0.117403  
         H59       1.0000    0.58470   0.20800   0.17490   Biso      1.000     H          0.121376  
         H60       1.0000    0.08200   0.52510   0.50360   Biso      1.000     H          0.118669  
         H61       1.0000    0.11410   0.42180   0.44910   Biso      1.000     H          0.117531  
         H62       1.0000    0.17490   0.58470   0.20800   Biso      1.000     H          0.121555  
         H63       1.0000    0.14110   0.68990   0.26230   Biso      1.000     H          0.117068  
         H64       1.0000    0.53110   0.98110   0.84800   Biso      1.000     H          0.097608  
         H65       1.0000    0.38590   0.05090   0.07820   Biso      1.000     H          0.117134  
         H66       1.0000    0.96890   0.65200   0.51890   Biso      1.000     H          0.097985  
         N1        1.0000    0.75000   0.53625   0.96375   Biso      1.000     N          -0.135592           
         N2        1.0000    0.96375   0.75000   0.53625   Biso      1.000     N          -0.136162           
         N3        1.0000    0.53625   0.96375   0.75000   Biso      1.000     N          -0.135223           
         N4        1.0000    0.46375   0.03625   0.25000   Biso      1.000     N          -0.138457           
         N5        1.0000    0.25000   0.46375   0.03625   Biso      1.000     N          -0.131146           
         N6        1.0000    0.03625   0.25000   0.46375   Biso      1.000     N          -0.131741           
         O1        1.0000    0.21307   0.21303   0.43152   Biso      1.000     O          -0.485571           
         O2        1.0000    0.12677   0.37496   0.16204   Biso      1.000     O          -0.503205           
         O3        1.0000    0.06848   0.28697   0.28693   Biso      1.000     O          -0.487482           
         O4        1.0000    0.28693   0.06848   0.28697   Biso      1.000     O          -0.486522           
         O5        1.0000    0.16204   0.12677   0.37496   Biso      1.000     O          -0.503962           
         O6        1.0000    0.28697   0.28693   0.06848   Biso      1.000     O          -0.483965           
         O7        1.0000    0.37496   0.16204   0.12677   Biso      1.000     O          -0.506826           
         O8        1.0000    0.21303   0.43152   0.21307   Biso      1.000     O          -0.48593  
         O9        1.0000    0.12504   0.37323   0.33796   Biso      1.000     O          -0.50515  
         O10       1.0000    0.43152   0.21307   0.21303   Biso      1.000     O          -0.48653  
         O11       1.0000    0.37323   0.33796   0.12504   Biso      1.000     O          -0.502006           
         O12       1.0000    0.33796   0.12504   0.37323   Biso      1.000     O          -0.506849           
         O13       1.0000    0.78693   0.78697   0.56848   Biso      1.000     O          -0.484249           
         O14       1.0000    0.87323   0.62504   0.83796   Biso      1.000     O          -0.499385           
         O15       1.0000    0.71307   0.93152   0.71303   Biso      1.000     O          -0.482926           
         O16       1.0000    0.83796   0.87323   0.62504   Biso      1.000     O          -0.503551           
         O17       1.0000    0.71303   0.71307   0.93152   Biso      1.000     O          -0.481202           
         O18       1.0000    0.62504   0.83796   0.87323   Biso      1.000     O          -0.498881           
         O19       1.0000    0.78697   0.56848   0.78693   Biso      1.000     O          -0.482496           
         O20       1.0000    0.87496   0.62677   0.66204   Biso      1.000     O          -0.503159           
         O21       1.0000    0.56848   0.78693   0.78697   Biso      1.000     O          -0.481682           
         O22       1.0000    0.62677   0.66204   0.87496   Biso      1.000     O          -0.498062           
         O23       1.0000    0.66204   0.87496   0.62677   Biso      1.000     O          -0.500356           
         O24       1.0000    0.25000   0.25000   0.25000   Biso      1.000     O          -0.642072           
         O25       1.0000    0.93152   0.71303   0.71307   Biso      1.000     O          -0.48396  
         O26       1.0000    0.75000   0.75000   0.75000   Biso      1.000     O          -0.67954 