
##########################################################################
#               Crystallographic Information Format file
#               Produced by PyCifRW module
#
#  This is a CIF file.  CIF has been adopted by the International
#  Union of Crystallography as the standard for data archiving and
#  transmission.
#
#  For information on this file format, follow the CIF links at
#  http://www.iucr.org
##########################################################################

data_image0

_cell_length_a                          7.1046
_cell_length_b                          13.7152
_cell_length_c                          22.951
_cell_angle_alpha                       87.7027
_cell_angle_beta                        81.0965
_cell_angle_gamma                       74.9891
_symmetry_space_group_name_H-M          'P 1'
_symmetry_int_tables_number             1
loop_
  _symmetry_equiv_pos_as_xyz
         'x, y, z' 
loop_
  _atom_site_label
  _atom_site_occupancy
  _atom_site_fract_x
  _atom_site_fract_y
  _atom_site_fract_z
  _atom_site_thermal_displace_type
  _atom_site_B_iso_or_equiv
  _atom_site_type_symbol
  _atom_site_charge
         C1        1.0000    0.31118   0.05598   0.49340   Biso      1.000     C          -0.150537           
         C2        1.0000    0.25093   0.13886   0.37316   Biso      1.000     C          -0.103047           
         C3        1.0000    0.26821   0.80246   0.25000   Biso      1.000     C          -0.145161           
         C4        1.0000    0.14525   0.02606   0.25000   Biso      1.000     C          -0.096656           
         C5        1.0000    0.39027   0.50402   0.45440   Biso      1.000     C          -0.146768           
         C6        1.0000    0.58569   0.44804   0.44780   Biso      1.000     C          0.092039  
         C7        1.0000    0.67508   0.39386   0.39332   Biso      1.000     C          -0.037046           
         C8        1.0000    0.34869   0.99598   0.04560   Biso      1.000     C          -0.147899           
         C9        1.0000    0.57499   0.36550   0.35212   Biso      1.000     C          -0.091945           
         C10       1.0000    0.69542   0.44402   0.49340   Biso      1.000     C          -0.149909           
         C11       1.0000    0.98179   0.69754   0.25000   Biso      1.000     C          -0.145163           
         C12       1.0000    0.10475   0.47394   0.25000   Biso      1.000     C          -0.096789           
         C13       1.0000    0.65131   0.00402   0.95440   Biso      1.000     C          -0.147929           
         C14       1.0000    0.51847   0.94804   0.94780   Biso      1.000     C          0.092678  
         C15       1.0000    0.53774   0.89386   0.89332   Biso      1.000     C          -0.038917           
         C16       1.0000    0.87591   0.36114   0.37316   Biso      1.000     C          -0.101672           
         C17       1.0000    0.70739   0.86550   0.85212   Biso      1.000     C          -0.0887   
         C18       1.0000    0.48153   0.05196   0.05220   Biso      1.000     C          0.092767  
         C19       1.0000    0.29261   0.13450   0.14788   Biso      1.000     C          -0.088711           
         C20       1.0000    0.46651   0.05196   0.44780   Biso      1.000     C          0.092609  
         C21       1.0000    0.65533   0.99598   0.45440   Biso      1.000     C          -0.147627           
         C22       1.0000    0.42131   0.47394   0.25000   Biso      1.000     C          -0.095282           
         C23       1.0000    0.32067   0.69754   0.25000   Biso      1.000     C          -0.147254           
         C24       1.0000    0.86056   0.44402   0.00660   Biso      1.000     C          -0.149423           
         C25       1.0000    0.76295   0.36114   0.12684   Biso      1.000     C          -0.103191           
         C26       1.0000    0.46226   0.10614   0.10668   Biso      1.000     C          -0.039018           
         C27       1.0000    0.05951   0.36550   0.14788   Biso      1.000     C          -0.08789  
         C28       1.0000    0.96627   0.44804   0.05220   Biso      1.000     C          0.092158  
         C29       1.0000    0.10571   0.50402   0.04560   Biso      1.000     C          -0.148394           
         C30       1.0000    0.82869   0.02606   0.25000   Biso      1.000     C          -0.095445           
         C31       1.0000    0.92933   0.80246   0.25000   Biso      1.000     C          -0.147248           
         C32       1.0000    0.63284   0.05598   0.00660   Biso      1.000     C          -0.149109           
         C33       1.0000    0.61021   0.13886   0.12684   Biso      1.000     C          -0.101401           
         C34       1.0000    0.93106   0.39386   0.10668   Biso      1.000     C          -0.038495           
         C35       1.0000    0.38979   0.86114   0.87316   Biso      1.000     C          -0.10139  
         C36       1.0000    0.36716   0.94402   0.99340   Biso      1.000     C          -0.149109           
         C37       1.0000    0.07067   0.19754   0.75000   Biso      1.000     C          -0.147233           
         C38       1.0000    0.32492   0.60614   0.60668   Biso      1.000     C          -0.036949           
         C39       1.0000    0.42501   0.63450   0.64788   Biso      1.000     C          -0.091941           
         C40       1.0000    0.12409   0.63886   0.62684   Biso      1.000     C          -0.101656           
         C41       1.0000    0.30458   0.55598   0.50660   Biso      1.000     C          -0.149911           
         C42       1.0000    0.01821   0.30246   0.75000   Biso      1.000     C          -0.145146           
         C43       1.0000    0.89525   0.52606   0.75000   Biso      1.000     C          -0.09676  
         C44       1.0000    0.41431   0.55196   0.55220   Biso      1.000     C          0.091953  
         C45       1.0000    0.07254   0.85492   0.25000   Biso      1.000     C          0.092926  
         C46       1.0000    0.17746   0.64508   0.25000   Biso      1.000     C          0.092937  
         C47       1.0000    0.23219   0.53562   0.25000   Biso      1.000     C          -0.038505           
         C48       1.0000    0.92746   0.14508   0.75000   Biso      1.000     C          0.092929  
         C49       1.0000    0.98219   0.03562   0.75000   Biso      1.000     C          -0.038453           
         C50       1.0000    0.82254   0.35492   0.75000   Biso      1.000     C          0.092939  
         C51       1.0000    0.76781   0.46438   0.75000   Biso      1.000     C          -0.038475           
         C52       1.0000    0.01781   0.96438   0.25000   Biso      1.000     C          -0.038483           
         C53       1.0000    0.60973   0.49598   0.54560   Biso      1.000     C          -0.146803           
         C54       1.0000    0.85475   0.97394   0.75000   Biso      1.000     C          -0.096627           
         C55       1.0000    0.73179   0.19754   0.75000   Biso      1.000     C          -0.145148           
         C56       1.0000    0.17131   0.97394   0.75000   Biso      1.000     C          -0.095405           
         C57       1.0000    0.89429   0.49598   0.95440   Biso      1.000     C          -0.148425           
         C58       1.0000    0.03373   0.55196   0.94780   Biso      1.000     C          0.092069  
         C59       1.0000    0.06894   0.60614   0.89332   Biso      1.000     C          -0.038394           
         C60       1.0000    0.94049   0.63450   0.85212   Biso      1.000     C          -0.087881           
         C61       1.0000    0.23705   0.63886   0.87316   Biso      1.000     C          -0.103178           
         C62       1.0000    0.13944   0.55598   0.99340   Biso      1.000     C          -0.149427           
         C63       1.0000    0.67933   0.30246   0.75000   Biso      1.000     C          -0.147239           
         C64       1.0000    0.57869   0.52606   0.75000   Biso      1.000     C          -0.095242           
         C65       1.0000    0.34467   0.00402   0.54560   Biso      1.000     C          -0.14766  
         C66       1.0000    0.53349   0.94804   0.55220   Biso      1.000     C          0.092524  
         C67       1.0000    0.56840   0.89386   0.60668   Biso      1.000     C          -0.039202           
         C68       1.0000    0.42711   0.86550   0.64788   Biso      1.000     C          -0.088043           
         C69       1.0000    0.74907   0.86114   0.62684   Biso      1.000     C          -0.10303  
         C70       1.0000    0.68882   0.94402   0.50660   Biso      1.000     C          -0.150543           
         C71       1.0000    0.43160   0.10614   0.39332   Biso      1.000     C          -0.039298           
         C72       1.0000    0.57289   0.13450   0.35212   Biso      1.000     C          -0.088046           
         Fe1       1.0000    0.63004   0.25000   0.23992   Biso      1.000     Fe          0.421214  
         Fe2       1.0000    0.11996   0.25000   0.26008   Biso      1.000     Fe          0.420778  
         Fe3       1.0000    0.36996   0.75000   0.76008   Biso      1.000     Fe          0.421376  
         Fe4       1.0000    0.88004   0.75000   0.73992   Biso      1.000     Fe          0.420812  
         H1        1.0000    0.45440   0.66168   0.25000   Biso      1.000     H          0.115782  
         H2        1.0000    0.43514   0.38324   0.36042   Biso      1.000     H          0.129512  
         H3        1.0000    0.31528   0.50678   0.42322   Biso      1.000     H          0.115023  
         H4        1.0000    0.36608   0.83832   0.25000   Biso      1.000     H          0.114778  
         H5        1.0000    0.18214   0.09424   0.48888   Biso      1.000     H          0.113294  
         H6        1.0000    0.14015   0.12438   0.39726   Biso      1.000     H          0.127884  
         H7        1.0000    0.70444   0.11676   0.36042   Biso      1.000     H          0.128887  
         H8        1.0000    0.76150   0.99322   0.42322   Biso      1.000     H          0.115408  
         H9        1.0000    0.52417   0.50650   0.25000   Biso      1.000     H          0.129053  
         H10       1.0000    0.03067   0.49350   0.75000   Biso      1.000     H          0.128541  
         H11       1.0000    0.66179   0.37562   0.10274   Biso      1.000     H          0.127953  
         H12       1.0000    0.96259   0.37562   0.39726   Biso      1.000     H          0.127486  
         H13       1.0000    0.18162   0.38324   0.13958   Biso      1.000     H          0.128105  
         H14       1.0000    0.17794   0.50678   0.07678   Biso      1.000     H          0.115678  
         H15       1.0000    0.72583   0.99350   0.25000   Biso      1.000     H          0.129044  
         H16       1.0000    0.79560   0.83832   0.25000   Biso      1.000     H          0.115785  
         H17       1.0000    0.72362   0.09424   0.01112   Biso      1.000     H          0.112131  
         H18       1.0000    0.73547   0.12438   0.10274   Biso      1.000     H          0.12689   
         H19       1.0000    0.17880   0.11676   0.13958   Biso      1.000     H          0.127809  
         H20       1.0000    0.24528   0.99322   0.07678   Biso      1.000     H          0.115498  
         H21       1.0000    0.76526   0.40576   0.01112   Biso      1.000     H          0.11283   
         H22       1.0000    0.82898   0.40576   0.48888   Biso      1.000     H          0.112621  
         H23       1.0000    0.28067   0.99350   0.25000   Biso      1.000     H          0.128514  
         H24       1.0000    0.96933   0.50650   0.25000   Biso      1.000     H          0.128519  
         H25       1.0000    0.11608   0.33832   0.75000   Biso      1.000     H          0.114776  
         H26       1.0000    0.17102   0.59424   0.51112   Biso      1.000     H          0.112601  
         H27       1.0000    0.03741   0.62438   0.60274   Biso      1.000     H          0.127519  
         H28       1.0000    0.56486   0.61676   0.63958   Biso      1.000     H          0.129536  
         H29       1.0000    0.68472   0.49322   0.57678   Biso      1.000     H          0.114991  
         H30       1.0000    0.71933   0.00650   0.75000   Biso      1.000     H          0.128535  
         H31       1.0000    0.63392   0.16168   0.75000   Biso      1.000     H          0.114775  
         H32       1.0000    0.88392   0.66168   0.25000   Biso      1.000     H          0.11478   
         H33       1.0000    0.85985   0.87562   0.60274   Biso      1.000     H          0.127917  
         H34       1.0000    0.29556   0.88324   0.63958   Biso      1.000     H          0.128911  
         H35       1.0000    0.23850   0.00678   0.57678   Biso      1.000     H          0.115375  
         H36       1.0000    0.47583   0.49350   0.75000   Biso      1.000     H          0.129074  
         H37       1.0000    0.81786   0.90576   0.51112   Biso      1.000     H          0.113274  
         H38       1.0000    0.23474   0.59424   0.98888   Biso      1.000     H          0.112811  
         H39       1.0000    0.54560   0.33832   0.75000   Biso      1.000     H          0.115779  
         H40       1.0000    0.82120   0.88324   0.86042   Biso      1.000     H          0.127835  
         H41       1.0000    0.26453   0.87562   0.89726   Biso      1.000     H          0.126925  
         H42       1.0000    0.27638   0.90576   0.98888   Biso      1.000     H          0.112112  
         H43       1.0000    0.75472   0.00678   0.92322   Biso      1.000     H          0.115467  
         H44       1.0000    0.27417   0.00650   0.75000   Biso      1.000     H          0.129065  
         H45       1.0000    0.82206   0.49322   0.92322   Biso      1.000     H          0.115646  
         H46       1.0000    0.81838   0.61676   0.86042   Biso      1.000     H          0.12813   
         H47       1.0000    0.33821   0.62438   0.89726   Biso      1.000     H          0.12799   
         H48       1.0000    0.20440   0.16168   0.75000   Biso      1.000     H          0.115781  
         N1        1.0000    0.66431   0.81524   0.80648   Biso      1.000     N          -0.104776           
         N2        1.0000    0.28603   0.68476   0.69352   Biso      1.000     N          -0.105362           
         N3        1.0000    0.96511   0.87414   0.75000   Biso      1.000     N          -0.090456           
         N4        1.0000    0.71942   0.81256   0.68052   Biso      1.000     N          -0.092783           
         N5        1.0000    0.52045   0.81524   0.69352   Biso      1.000     N          -0.104736           
         N6        1.0000    0.58925   0.62586   0.75000   Biso      1.000     N          -0.092828           
         N7        1.0000    0.21250   0.68744   0.81948   Biso      1.000     N          -0.091223           
         N8        1.0000    0.02921   0.68476   0.80648   Biso      1.000     N          -0.10585  
         N9        1.0000    0.16075   0.87414   0.75000   Biso      1.000     N          -0.092968           
         N10       1.0000    0.46802   0.81256   0.81948   Biso      1.000     N          -0.092147           
         N11       1.0000    0.21511   0.37414   0.25000   Biso      1.000     N          -0.090038           
         N12       1.0000    0.10006   0.68744   0.68052   Biso      1.000     N          -0.092505           
         N13       1.0000    0.71397   0.31524   0.30648   Biso      1.000     N          -0.105327           
         N14       1.0000    0.03489   0.12586   0.25000   Biso      1.000     N          -0.09047  
         N15       1.0000    0.28058   0.18744   0.31948   Biso      1.000     N          -0.092774           
         N16       1.0000    0.47955   0.18476   0.30648   Biso      1.000     N          -0.104701           
         N17       1.0000    0.41075   0.37414   0.25000   Biso      1.000     N          -0.092806           
         N18       1.0000    0.78750   0.31256   0.18052   Biso      1.000     N          -0.091191           
         N19       1.0000    0.97079   0.31524   0.19352   Biso      1.000     N          -0.105832           
         N20       1.0000    0.83925   0.12586   0.25000   Biso      1.000     N          -0.092948           
         N21       1.0000    0.53198   0.18744   0.18052   Biso      1.000     N          -0.092119           
         N22       1.0000    0.33569   0.18476   0.19352   Biso      1.000     N          -0.104754           
         N23       1.0000    0.89994   0.31256   0.31948   Biso      1.000     N          -0.092495           
         N24       1.0000    0.78489   0.62586   0.75000   Biso      1.000     N          -0.090022 