
##########################################################################
#               Crystallographic Information Format file
#               Produced by PyCifRW module
#
#  This is a CIF file.  CIF has been adopted by the International
#  Union of Crystallography as the standard for data archiving and
#  transmission.
#
#  For information on this file format, follow the CIF links at
#  http://www.iucr.org
##########################################################################

data_image0

_cell_length_a                          12.997
_cell_length_b                          13.8359
_cell_length_c                          21.9242
_cell_angle_alpha                       94.9258
_cell_angle_beta                        90
_cell_angle_gamma                       90
_symmetry_space_group_name_H-M          'P 1'
_symmetry_int_tables_number             1
loop_
  _symmetry_equiv_pos_as_xyz
         'x, y, z' 
loop_
  _atom_site_label
  _atom_site_occupancy
  _atom_site_fract_x
  _atom_site_fract_y
  _atom_site_fract_z
  _atom_site_thermal_displace_type
  _atom_site_B_iso_or_equiv
  _atom_site_type_symbol
  _atom_site_charge
         C1        1.0000    0.04060   0.82770   0.43170   Biso      1.000     C          -0.113272           
         C2        1.0000    0.01980   0.87140   0.37890   Biso      1.000     C          0.068291  
         C3        1.0000    0.07280   0.84530   0.32530   Biso      1.000     C          -0.064681           
         C4        1.0000    0.04630   0.88760   0.27460   Biso      1.000     C          -0.103996           
         C5        1.0000    0.96390   0.95900   0.27750   Biso      1.000     C          0.119183  
         C6        1.0000    0.93200   0.93690   0.37800   Biso      1.000     C          0.102293  
         C7        1.0000    0.86940   0.95750   0.43090   Biso      1.000     C          0.088324  
         C8        1.0000    0.78450   0.36710   0.77490   Biso      1.000     C          0.613919  
         C9        1.0000    0.75330   0.29560   0.81240   Biso      1.000     C          -0.01626  
         C10       1.0000    0.98500   0.84460   0.48200   Biso      1.000     C          -0.141362           
         C11       1.0000    0.67990   0.22660   0.79000   Biso      1.000     C          -0.121364           
         C12       1.0000    0.66760   0.15010   0.88110   Biso      1.000     C          -0.179811           
         C13       1.0000    0.74940   0.21130   0.90630   Biso      1.000     C          0.138602  
         C14       1.0000    0.78960   0.28970   0.86980   Biso      1.000     C          -0.170207           
         C15       1.0000    0.87260   0.23360   0.05710   Biso      1.000     C          0.100215  
         C16       1.0000    0.95780   0.28280   0.08050   Biso      1.000     C          -0.162548           
         C17       1.0000    0.97950   0.28440   0.14210   Biso      1.000     C          -0.008704           
         C18       1.0000    0.91550   0.23010   0.18020   Biso      1.000     C          -0.122857           
         C19       1.0000    0.83490   0.17360   0.15530   Biso      1.000     C          -0.009245           
         C20       1.0000    0.63650   0.15740   0.82240   Biso      1.000     C          -0.000804           
         C21       1.0000    0.81130   0.17590   0.09500   Biso      1.000     C          -0.164884           
         C22       1.0000    0.88850   0.91420   0.48770   Biso      1.000     C          0.034381  
         C23       1.0000    0.74830   0.98800   0.52650   Biso      1.000     C          -0.104056           
         C24       1.0000    0.43200   0.56310   0.12200   Biso      1.000     C          0.102294  
         C25       1.0000    0.36940   0.54250   0.06910   Biso      1.000     C          0.088324  
         C26       1.0000    0.71550   0.86710   0.27490   Biso      1.000     C          0.613919  
         C27       1.0000    0.74670   0.79560   0.31240   Biso      1.000     C          -0.01626  
         C28       1.0000    0.82010   0.72660   0.29000   Biso      1.000     C          -0.121364           
         C29       1.0000    0.86350   0.65740   0.32240   Biso      1.000     C          -0.000812           
         C30       1.0000    0.83240   0.65010   0.38110   Biso      1.000     C          -0.179802           
         C31       1.0000    0.75060   0.71130   0.40630   Biso      1.000     C          0.138601  
         C32       1.0000    0.81760   0.94000   0.53650   Biso      1.000     C          -0.067427           
         C33       1.0000    0.71040   0.78970   0.36980   Biso      1.000     C          -0.170207           
         C34       1.0000    0.54220   0.78280   0.58050   Biso      1.000     C          -0.162551           
         C35       1.0000    0.52050   0.78440   0.64210   Biso      1.000     C          -0.008704           
         C36       1.0000    0.66510   0.67360   0.65530   Biso      1.000     C          -0.009247           
         C37       1.0000    0.68870   0.67590   0.59500   Biso      1.000     C          -0.164884           
         C38       1.0000    0.94770   0.59880   0.29980   Biso      1.000     C          0.611567  
         C39       1.0000    0.72800   0.61750   0.69770   Biso      1.000     C          0.616923  
         C40       1.0000    0.43830   0.84550   0.66900   Biso      1.000     C          0.63804   
         C41       1.0000    0.73210   0.03040   0.47280   Biso      1.000     C          0.161745  
         C42       1.0000    0.62740   0.73360   0.55710   Biso      1.000     C          0.100217  
         C43       1.0000    0.46390   0.54100   0.22250   Biso      1.000     C          0.119185  
         C44       1.0000    0.55230   0.09880   0.79980   Biso      1.000     C          0.611567  
         C45       1.0000    0.06170   0.34550   0.16900   Biso      1.000     C          0.63804   
         C46       1.0000    0.41550   0.26990   0.31980   Biso      1.000     C          -0.122857           
         C47       1.0000    0.33490   0.32640   0.34470   Biso      1.000     C          -0.009245           
         C48       1.0000    0.31130   0.32410   0.40500   Biso      1.000     C          -0.164884           
         C49       1.0000    0.05230   0.40120   0.70020   Biso      1.000     C          0.611567  
         C50       1.0000    0.27200   0.38250   0.30230   Biso      1.000     C          0.616923  
         C51       1.0000    0.56170   0.15450   0.33100   Biso      1.000     C          0.63804   
         C52       1.0000    0.26790   0.96960   0.52720   Biso      1.000     C          0.161742  
         C53       1.0000    0.25170   0.01200   0.47350   Biso      1.000     C          -0.104052           
         C54       1.0000    0.47950   0.21560   0.35790   Biso      1.000     C          -0.008704           
         C55       1.0000    0.18240   0.06000   0.46350   Biso      1.000     C          -0.067428           
         C56       1.0000    0.01500   0.15540   0.51800   Biso      1.000     C          -0.141409           
         C57       1.0000    0.95940   0.17230   0.56830   Biso      1.000     C          -0.113225           
         C58       1.0000    0.98020   0.12860   0.62110   Biso      1.000     C          0.068286  
         C59       1.0000    0.92720   0.15470   0.67470   Biso      1.000     C          -0.064681           
         C60       1.0000    0.95370   0.11240   0.72540   Biso      1.000     C          -0.103995           
         C61       1.0000    0.03610   0.04100   0.72250   Biso      1.000     C          0.119183  
         C62       1.0000    0.06800   0.06310   0.62200   Biso      1.000     C          0.102293  
         C63       1.0000    0.13060   0.04250   0.56910   Biso      1.000     C          0.088323  
         C64       1.0000    0.11150   0.08580   0.51230   Biso      1.000     C          0.034387  
         C65       1.0000    0.77200   0.11750   0.19770   Biso      1.000     C          0.616923  
         C66       1.0000    0.45780   0.21720   0.41950   Biso      1.000     C          -0.162551           
         C67       1.0000    0.28960   0.21030   0.63020   Biso      1.000     C          -0.170228           
         C68       1.0000    0.76790   0.53040   0.97280   Biso      1.000     C          0.161742  
         C69       1.0000    0.75170   0.48800   0.02650   Biso      1.000     C          -0.104053           
         C70       1.0000    0.68240   0.44000   0.03650   Biso      1.000     C          -0.067428           
         C71       1.0000    0.61150   0.41420   0.98770   Biso      1.000     C          0.034386  
         C72       1.0000    0.51500   0.34460   0.98200   Biso      1.000     C          -0.141408           
         C73       1.0000    0.45940   0.32770   0.93170   Biso      1.000     C          -0.113226           
         C74       1.0000    0.48020   0.37140   0.87890   Biso      1.000     C          0.068286  
         C75       1.0000    0.42720   0.34530   0.82530   Biso      1.000     C          -0.064681           
         C76       1.0000    0.37260   0.26640   0.44290   Biso      1.000     C          0.100217  
         C77       1.0000    0.45370   0.38760   0.77460   Biso      1.000     C          -0.103995           
         C78       1.0000    0.56800   0.43690   0.87800   Biso      1.000     C          0.102293  
         C79       1.0000    0.63060   0.45750   0.93090   Biso      1.000     C          0.088324  
         C80       1.0000    0.28450   0.13290   0.72510   Biso      1.000     C          0.613917  
         C81       1.0000    0.25330   0.20440   0.68760   Biso      1.000     C          -0.016239           
         C82       1.0000    0.17990   0.27340   0.71000   Biso      1.000     C          -0.121366           
         C83       1.0000    0.13650   0.34260   0.67760   Biso      1.000     C          -0.000812           
         C84       1.0000    0.16760   0.34990   0.61890   Biso      1.000     C          -0.179802           
         C85       1.0000    0.24940   0.28870   0.59370   Biso      1.000     C          0.138603  
         C86       1.0000    0.53610   0.45900   0.77750   Biso      1.000     C          0.119183  
         C87       1.0000    0.54630   0.61240   0.22540   Biso      1.000     C          -0.104016           
         C88       1.0000    0.58450   0.73010   0.68020   Biso      1.000     C          -0.122855           
         C89       1.0000    0.51980   0.62860   0.12110   Biso      1.000     C          0.06828   
         C90       1.0000    0.57280   0.65470   0.17470   Biso      1.000     C          -0.064659           
         C91       1.0000    0.21550   0.63290   0.22510   Biso      1.000     C          0.613919  
         C92       1.0000    0.24670   0.70440   0.18760   Biso      1.000     C          -0.01626  
         C93       1.0000    0.32010   0.77340   0.21000   Biso      1.000     C          -0.121363           
         C94       1.0000    0.36350   0.84260   0.17760   Biso      1.000     C          -0.000811           
         C95       1.0000    0.33240   0.84990   0.11890   Biso      1.000     C          -0.179803           
         C96       1.0000    0.25060   0.78870   0.09370   Biso      1.000     C          0.13859   
         C97       1.0000    0.12740   0.76640   0.94290   Biso      1.000     C          0.100221  
         C98       1.0000    0.04220   0.71720   0.91950   Biso      1.000     C          -0.162549           
         C99       1.0000    0.02050   0.71560   0.85790   Biso      1.000     C          -0.008704           
         C100      1.0000    0.08450   0.76990   0.81980   Biso      1.000     C          -0.122858           
         C101      1.0000    0.21040   0.71030   0.13020   Biso      1.000     C          -0.170206           
         C102      1.0000    0.18870   0.82410   0.90500   Biso      1.000     C          -0.164899           
         C103      1.0000    0.44770   0.90120   0.20020   Biso      1.000     C          0.611568  
         C104      1.0000    0.22800   0.88250   0.80230   Biso      1.000     C          0.616922  
         C105      1.0000    0.93830   0.65450   0.83100   Biso      1.000     C          0.63804   
         C106      1.0000    0.23210   0.46960   0.02720   Biso      1.000     C          0.161742  
         C107      1.0000    0.24830   0.51200   0.97350   Biso      1.000     C          -0.104053           
         C108      1.0000    0.31760   0.56000   0.96350   Biso      1.000     C          -0.067428           
         C109      1.0000    0.38850   0.58580   0.01230   Biso      1.000     C          0.034386  
         C110      1.0000    0.48500   0.65540   0.01800   Biso      1.000     C          -0.141409           
         C111      1.0000    0.16510   0.82640   0.84470   Biso      1.000     C          -0.009233           
         C112      1.0000    0.54060   0.67230   0.06830   Biso      1.000     C          -0.113221           
         H1        1.0000    0.66140   0.83360   0.38630   Biso      1.000     H          0.139102  
         H2        1.0000    0.49940   0.81480   0.55480   Biso      1.000     H          0.136157  
         H3        1.0000    0.57180   0.73260   0.72200   Biso      1.000     H          0.126665  
         H4        1.0000    0.74420   0.64040   0.57830   Biso      1.000     H          0.135291  
         H5        1.0000    0.67690   0.07300   0.47120   Biso      1.000     H          0.094563  
         H6        1.0000    0.12580   0.80020   0.32440   Biso      1.000     H          0.14051   
         H7        1.0000    0.00400   0.81370   0.51630   Biso      1.000     H          0.12598   
         H8        1.0000    0.09550   0.78430   0.43190   Biso      1.000     H          0.14126   
         H9        1.0000    0.86370   0.60570   0.40470   Biso      1.000     H          0.140007  
         H10       1.0000    0.08030   0.87070   0.23780   Biso      1.000     H          0.134992  
         H11       1.0000    0.69930   0.99890   0.55720   Biso      1.000     H          0.129936  
         H12       1.0000    0.84080   0.72830   0.24950   Biso      1.000     H          0.115384  
         H13       1.0000    0.16140   0.66640   0.11370   Biso      1.000     H          0.139102  
         H14       1.0000    0.58030   0.62930   0.26220   Biso      1.000     H          0.134993  
         H15       1.0000    0.62580   0.69980   0.17560   Biso      1.000     H          0.140508  
         H16       1.0000    0.59550   0.71570   0.06810   Biso      1.000     H          0.141256  
         H17       1.0000    0.50400   0.68630   0.98370   Biso      1.000     H          0.125983  
         H18       1.0000    0.32730   0.58140   0.92480   Biso      1.000     H          0.128594  
         H19       1.0000    0.19930   0.50110   0.94280   Biso      1.000     H          0.129936  
         H20       1.0000    0.17690   0.42700   0.02880   Biso      1.000     H          0.094563  
         H21       1.0000    0.24420   0.85960   0.92170   Biso      1.000     H          0.135291  
         H22       1.0000    0.07180   0.76740   0.77800   Biso      1.000     H          0.126665  
         H23       1.0000    0.99940   0.68520   0.94520   Biso      1.000     H          0.136157  
         H24       1.0000    0.94950   0.99040   0.24260   Biso      1.000     H          0.105446  
         H25       1.0000    0.36370   0.89430   0.09530   Biso      1.000     H          0.140006  
         H26       1.0000    0.34080   0.77170   0.25050   Biso      1.000     H          0.115384  
         H27       1.0000    0.44950   0.50960   0.25740   Biso      1.000     H          0.105446  
         H28       1.0000    0.65920   0.22830   0.74950   Biso      1.000     H          0.115384  
         H29       1.0000    0.82730   0.91860   0.57520   Biso      1.000     H          0.128594  
         H30       1.0000    0.83860   0.33360   0.88630   Biso      1.000     H          0.139102  
         H31       1.0000    0.63630   0.10570   0.90470   Biso      1.000     H          0.140008  
         H32       1.0000    0.05050   0.00960   0.75740   Biso      1.000     H          0.105446  
         H33       1.0000    0.91970   0.12930   0.76220   Biso      1.000     H          0.134992  
         H34       1.0000    0.87420   0.19980   0.67560   Biso      1.000     H          0.140509  
         H35       1.0000    0.90450   0.21570   0.56810   Biso      1.000     H          0.141257  
         H36       1.0000    0.17270   0.08140   0.42480   Biso      1.000     H          0.128594  
         H37       1.0000    0.30070   0.00110   0.44280   Biso      1.000     H          0.129936  
         H38       1.0000    0.32310   0.92700   0.52880   Biso      1.000     H          0.094563  
         H39       1.0000    0.25580   0.35960   0.42170   Biso      1.000     H          0.135291  
         H40       1.0000    0.42820   0.26740   0.27800   Biso      1.000     H          0.126665  
         H41       1.0000    0.50060   0.18520   0.44520   Biso      1.000     H          0.136157  
         H42       1.0000    0.33860   0.16640   0.61370   Biso      1.000     H          0.139104  
         H43       1.0000    0.99600   0.18630   0.48370   Biso      1.000     H          0.125983  
         H44       1.0000    0.15920   0.27170   0.75050   Biso      1.000     H          0.115384  
         H45       1.0000    0.00060   0.31480   0.05480   Biso      1.000     H          0.136156  
         H46       1.0000    0.13630   0.39430   0.59530   Biso      1.000     H          0.140007  
         H47       1.0000    0.92820   0.23260   0.22200   Biso      1.000     H          0.126665  
         H48       1.0000    0.75580   0.14040   0.07830   Biso      1.000     H          0.135291  
         H49       1.0000    0.80070   0.49890   0.05720   Biso      1.000     H          0.129936  
         H50       1.0000    0.82310   0.57300   0.97120   Biso      1.000     H          0.094563  
         H51       1.0000    0.49600   0.31370   0.01630   Biso      1.000     H          0.125983  
         H52       1.0000    0.40450   0.28430   0.93190   Biso      1.000     H          0.141257  
         H53       1.0000    0.37420   0.30020   0.82440   Biso      1.000     H          0.140509  
         H54       1.0000    0.41970   0.37070   0.73780   Biso      1.000     H          0.134992  
         H55       1.0000    0.55050   0.49040   0.74260   Biso      1.000     H          0.105446  
         H56       1.0000    0.67270   0.41860   0.07520   Biso      1.000     H          0.128594  
         N1        1.0000    0.90930   0.98100   0.32670   Biso      1.000     N          -0.275172           
         N2        1.0000    0.28760   0.48480   0.07420   Biso      1.000     N          -0.252149           
         N3        1.0000    0.78760   0.01520   0.42580   Biso      1.000     N          -0.252149           
         N4        1.0000    0.15350   0.75990   0.00860   Biso      1.000     N          0.362308  
         N5        1.0000    0.22620   0.80240   0.02960   Biso      1.000     N          -0.195196           
         N6        1.0000    0.40930   0.51900   0.17330   Biso      1.000     N          -0.275173           
         N7        1.0000    0.71240   0.51520   0.92580   Biso      1.000     N          -0.252149           
         N8        1.0000    0.09070   0.01900   0.67330   Biso      1.000     N          -0.275173           
         N9        1.0000    0.77380   0.19760   0.97040   Biso      1.000     N          -0.195292           
         N10       1.0000    0.84650   0.24010   0.99140   Biso      1.000     N          0.3624    
         N11       1.0000    0.21240   0.98480   0.57420   Biso      1.000     N          -0.252149           
         N12       1.0000    0.27380   0.30240   0.52960   Biso      1.000     N          -0.195292           
         N13       1.0000    0.34650   0.25990   0.50860   Biso      1.000     N          0.3624    
         N14       1.0000    0.72620   0.69760   0.47040   Biso      1.000     N          -0.195292           
         N15       1.0000    0.59070   0.48100   0.82670   Biso      1.000     N          -0.275172           
         N16       1.0000    0.65350   0.74010   0.49140   Biso      1.000     N          0.3624    
         O1        1.0000    0.36200   0.86130   0.63820   Biso      1.000     O          -0.551673           
         O2        1.0000    0.50870   0.04760   0.82810   Biso      1.000     O          -0.519349           
         O3        1.0000    0.52920   0.10380   0.74310   Biso      1.000     O          -0.64015  
         O4        1.0000    0.79070   0.35450   0.71970   Biso      1.000     O          -0.548471           
         O5        1.0000    0.81940   0.44650   0.79990   Biso      1.000     O          -0.610487           
         O6        1.0000    0.57260   0.78910   0.46420   Biso      1.000     O          -0.451628           
         O7        1.0000    0.45200   0.87780   0.72420   Biso      1.000     O          -0.564948           
         O8        1.0000    0.69760   0.06990   0.17280   Biso      1.000     O          -0.534148           
         O9        1.0000    0.79850   0.11830   0.25140   Biso      1.000     O          -0.570726           
         O10       1.0000    0.00870   0.45240   0.67190   Biso      1.000     O          -0.519349           
         O11       1.0000    0.04800   0.37780   0.22420   Biso      1.000     O          -0.564948           
         O12       1.0000    0.63800   0.13870   0.36180   Biso      1.000     O          -0.551673           
         O13       1.0000    0.29850   0.38170   0.24860   Biso      1.000     O          -0.570726           
         O14       1.0000    0.19760   0.43010   0.32720   Biso      1.000     O          -0.534147           
         O15       1.0000    0.02920   0.39620   0.75690   Biso      1.000     O          -0.64015  
         O16       1.0000    0.29070   0.14550   0.78030   Biso      1.000     O          -0.548471           
         O17       1.0000    0.31940   0.05350   0.70010   Biso      1.000     O          -0.610487           
         O18       1.0000    0.70150   0.61830   0.75140   Biso      1.000     O          -0.570726           
         O19       1.0000    0.92740   0.28910   0.96420   Biso      1.000     O          -0.451629           
         O20       1.0000    0.13800   0.36130   0.13820   Biso      1.000     O          -0.551673           
         O21       1.0000    0.80240   0.56990   0.67280   Biso      1.000     O          -0.534147           
         O22       1.0000    0.42740   0.21090   0.53580   Biso      1.000     O          -0.451628           
         O23       1.0000    0.97080   0.60380   0.24310   Biso      1.000     O          -0.64015  
         O24       1.0000    0.54800   0.12220   0.27580   Biso      1.000     O          -0.564949           
         O25       1.0000    0.18060   0.55350   0.20010   Biso      1.000     O          -0.610487           
         O26       1.0000    0.99130   0.54760   0.32810   Biso      1.000     O          -0.51935  
         O27       1.0000    0.47080   0.89620   0.25690   Biso      1.000     O          -0.64015  
         O28       1.0000    0.49130   0.95240   0.17190   Biso      1.000     O          -0.51935  
         O29       1.0000    0.30240   0.93010   0.82720   Biso      1.000     O          -0.534147           
         O30       1.0000    0.20930   0.64550   0.28030   Biso      1.000     O          -0.548472           
         O31       1.0000    0.86200   0.63870   0.86180   Biso      1.000     O          -0.551673           
         O32       1.0000    0.95200   0.62220   0.77580   Biso      1.000     O          -0.564948           
         O33       1.0000    0.07260   0.71090   0.03580   Biso      1.000     O          -0.451624           
         O34       1.0000    0.68060   0.94650   0.29990   Biso      1.000     O          -0.610488           
         O35       1.0000    0.70930   0.85450   0.21970   Biso      1.000     O          -0.548472           
         O36       1.0000    0.20150   0.88170   0.74860   Biso      1.000     O          -0.570726           
         Zn1       1.0000    0.89360   0.50522   0.72825   Biso      1.000     Zn          0.949335  
         Zn2       1.0000    0.22333   0.92679   0.66127   Biso      1.000     Zn          0.866569  
         Zn3       1.0000    0.39360   0.99478   0.77175   Biso      1.000     Zn          0.949336  
         Zn4       1.0000    0.72333   0.57321   0.83873   Biso      1.000     Zn          0.866569  
         Zn5       1.0000    0.10640   0.49478   0.27175   Biso      1.000     Zn          0.949336  
         Zn6       1.0000    0.77667   0.07321   0.33873   Biso      1.000     Zn          0.866569  
         Zn7       1.0000    0.60640   0.00522   0.22825   Biso      1.000     Zn          0.949337  
         Zn8       1.0000    0.27667   0.42679   0.16127   Biso      1.000     Zn          0.866569 