
##########################################################################
#               Crystallographic Information Format file
#               Produced by PyCifRW module
#
#  This is a CIF file.  CIF has been adopted by the International
#  Union of Crystallography as the standard for data archiving and
#  transmission.
#
#  For information on this file format, follow the CIF links at
#  http://www.iucr.org
##########################################################################

data_image0

_cell_length_a                          10.4135
_cell_length_b                          10.5541
_cell_length_c                          14.0372
_cell_angle_alpha                       99.595
_cell_angle_beta                        99.62
_cell_angle_gamma                       108.843
_symmetry_space_group_name_H-M          'P 1'
_symmetry_int_tables_number             1
loop_
  _symmetry_equiv_pos_as_xyz
         'x, y, z' 
loop_
  _atom_site_label
  _atom_site_occupancy
  _atom_site_fract_x
  _atom_site_fract_y
  _atom_site_fract_z
  _atom_site_thermal_displace_type
  _atom_site_B_iso_or_equiv
  _atom_site_type_symbol
  _atom_site_charge
         C1        1.0000    0.63160   0.49840   0.99320   Biso      1.000     C          -0.063621           
         C2        1.0000    0.12480   0.10890   0.04680   Biso      1.000     C          -0.136019           
         C3        1.0000    0.87230   0.01200   0.00950   Biso      1.000     C          -0.044585           
         C4        1.0000    0.99830   0.12080   0.05570   Biso      1.000     C          0.014247999999999999          
         C5        1.0000    0.17690   0.64230   0.69670   Biso      1.000     C          0.7098720000000001  
         C6        1.0000    0.05620   0.32600   0.63030   Biso      1.000     C          0.640476  
         C7        1.0000    0.05110   0.64170   0.53030   Biso      1.000     C          -0.118978           
         C8        1.0000    0.08290   0.56480   0.59610   Biso      1.000     C          -0.081089           
         C9        1.0000    0.03020   0.41990   0.56510   Biso      1.000     C          -0.043106           
         C10       1.0000    0.22520   0.49860   0.01180   Biso      1.000     C          0.710544  
         C11       1.0000    0.48490   0.72050   0.14700   Biso      1.000     C          0.633053  
         C12       1.0000    0.38120   0.40070   0.93510   Biso      1.000     C          -0.135667           
         C13       1.0000    0.36840   0.50160   0.00680   Biso      1.000     C          -0.063621           
         C14       1.0000    0.48810   0.60180   0.07190   Biso      1.000     C          0.000133  
         C15       1.0000    0.26500   0.98230   0.97300   Biso      1.000     C          0.739762  
         C16       1.0000    0.00090   0.74140   0.89440   Biso      1.000     C          0.592985  
         C17       1.0000    0.87520   0.89110   0.95320   Biso      1.000     C          -0.13602  
         C18       1.0000    0.12770   0.98800   0.99050   Biso      1.000     C          -0.044586           
         C19       1.0000    0.00170   0.87920   0.94430   Biso      1.000     C          0.014247999999999999          
         C20       1.0000    0.51190   0.39820   0.92810   Biso      1.000     C          0.000133  
         C21       1.0000    0.61880   0.59930   0.06490   Biso      1.000     C          -0.135666           
         C22       1.0000    0.51510   0.27950   0.85300   Biso      1.000     C          0.633054  
         C23       1.0000    0.77480   0.50140   0.98820   Biso      1.000     C          0.710544  
         C24       1.0000    0.96980   0.58010   0.43490   Biso      1.000     C          -0.043105000000000004         
         C25       1.0000    0.91710   0.43520   0.40390   Biso      1.000     C          -0.08109  
         C26       1.0000    0.94890   0.35830   0.46970   Biso      1.000     C          -0.118974           
         C27       1.0000    0.94380   0.67400   0.36970   Biso      1.000     C          0.640476  
         C28       1.0000    0.82310   0.35770   0.30330   Biso      1.000     C          0.709873  
         C29       1.0000    0.99910   0.25860   0.10560   Biso      1.000     C          0.592985  
         C30       1.0000    0.73500   0.01770   0.02700   Biso      1.000     C          0.739761  
         Er1       1.0000    0.96416   0.46417   0.82145   Biso      1.000     Er          2.097397  
         Er2       1.0000    0.45822   0.93462   0.81801   Biso      1.000     Er          2.166087  
         Er3       1.0000    0.03584   0.53583   0.17855   Biso      1.000     Er          2.0974    
         Er4       1.0000    0.54178   0.06538   0.18199   Biso      1.000     Er          2.166087  
         H1        1.0000    0.69850   0.66550   0.10850   Biso      1.000     H          0.14435499999999998           
         H2        1.0000    0.20790   0.18170   0.07830   Biso      1.000     H          0.126927  
         H3        1.0000    0.08570   0.73730   0.55130   Biso      1.000     H          0.13632   
         H4        1.0000    0.30150   0.33450   0.89150   Biso      1.000     H          0.144354  
         H5        1.0000    0.79210   0.81830   0.92170   Biso      1.000     H          0.126927  
         H6        1.0000    0.91430   0.26270   0.44870   Biso      1.000     H          0.13632   
         O1        1.0000    0.99980   0.68420   0.29890   Biso      1.000     O          -0.770957           
         O2        1.0000    0.92380   0.31010   0.05740   Biso      1.000     O          -0.632223           
         O3        1.0000    0.08020   0.32490   0.18900   Biso      1.000     O          -0.643443           
         O4        1.0000    0.86880   0.55750   0.06770   Biso      1.000     O          -0.688528           
         O5        1.0000    0.72620   0.24770   0.29910   Biso      1.000     O          -0.751713           
         O6        1.0000    0.52560   0.17830   0.88560   Biso      1.000     O          -0.7556109999999999           
         O7        1.0000    0.49730   0.28490   0.76370   Biso      1.000     O          -0.583217           
         O8        1.0000    0.84570   0.40700   0.22940   Biso      1.000     O          -0.666359           
         O9        1.0000    0.72700   0.04200   0.11640   Biso      1.000     O          -0.625229           
         O10       1.0000    0.79320   0.45060   0.90680   Biso      1.000     O          -0.685487           
         O11       1.0000    0.63760   0.99310   0.95310   Biso      1.000     O          -0.759812           
         O12       1.0000    0.50270   0.71510   0.23630   Biso      1.000     O          -0.583217           
         O13       1.0000    0.00020   0.31580   0.70110   Biso      1.000     O          -0.770957           
         O14       1.0000    0.27380   0.75230   0.70090   Biso      1.000     O          -0.7517119999999999           
         O15       1.0000    0.15430   0.59300   0.77060   Biso      1.000     O          -0.666358           
         O16       1.0000    0.47440   0.82170   0.11440   Biso      1.000     O          -0.755612           
         O17       1.0000    0.20680   0.54940   0.09320   Biso      1.000     O          -0.685488           
         O18       1.0000    0.13120   0.44250   0.93230   Biso      1.000     O          -0.688527           
         O19       1.0000    0.91980   0.67510   0.81100   Biso      1.000     O          -0.643442           
         O20       1.0000    0.07620   0.68990   0.94260   Biso      1.000     O          -0.632223           
         O21       1.0000    0.27300   0.95800   0.88360   Biso      1.000     O          -0.625229           
         O22       1.0000    0.36240   0.00690   0.04690   Biso      1.000     O          -0.759812           
         O23       1.0000    0.12470   0.25490   0.60580   Biso      1.000     O          -0.526518           
         O24       1.0000    0.87530   0.74510   0.39420   Biso      1.000     O          -0.526518 