
##########################################################################
#               Crystallographic Information Format file
#               Produced by PyCifRW module
#
#  This is a CIF file.  CIF has been adopted by the International
#  Union of Crystallography as the standard for data archiving and
#  transmission.
#
#  For information on this file format, follow the CIF links at
#  http://www.iucr.org
##########################################################################

data_image0

_cell_length_a                          11.2874
_cell_length_b                          11.8917
_cell_length_c                          17.5352
_cell_angle_alpha                       90
_cell_angle_beta                        90
_cell_angle_gamma                       106.723
_symmetry_space_group_name_H-M          'P 1'
_symmetry_int_tables_number             1
loop_
  _symmetry_equiv_pos_as_xyz
         'x, y, z' 
loop_
  _atom_site_label
  _atom_site_occupancy
  _atom_site_fract_x
  _atom_site_fract_y
  _atom_site_fract_z
  _atom_site_thermal_displace_type
  _atom_site_B_iso_or_equiv
  _atom_site_type_symbol
  _atom_site_charge
         C1        1.0000    0.96680   0.84940   0.61140   Biso      1.000     C          0.739355  
         C2        1.0000    0.00690   0.35630   0.60880   Biso      1.000     C          0.723977  
         C3        1.0000    0.86700   0.45810   0.68040   Biso      1.000     C          -0.024455           
         C4        1.0000    0.95450   0.39460   0.68090   Biso      1.000     C          -0.028675           
         C5        1.0000    0.60930   0.50110   0.11040   Biso      1.000     C          0.635458  
         C6        1.0000    0.16960   0.96100   0.11020   Biso      1.000     C          0.617583  
         C7        1.0000    0.47580   0.31980   0.18050   Biso      1.000     C          -0.032323           
         C8        1.0000    0.03320   0.15060   0.11140   Biso      1.000     C          0.739355  
         C9        1.0000    0.42900   0.25250   0.10750   Biso      1.000     C          0.628475  
         C10       1.0000    0.17540   0.49480   0.11000   Biso      1.000     C          0.562412  
         C11       1.0000    0.14160   0.01670   0.18100   Biso      1.000     C          -0.082513           
         C12       1.0000    0.07510   0.09940   0.18130   Biso      1.000     C          0.018878  
         C13       1.0000    0.99310   0.64370   0.10880   Biso      1.000     C          0.723977  
         C14       1.0000    0.13300   0.54190   0.18040   Biso      1.000     C          -0.024455           
         C15       1.0000    0.04550   0.60540   0.18090   Biso      1.000     C          -0.028675           
         C16       1.0000    0.60930   0.50110   0.38960   Biso      1.000     C          0.635458  
         C17       1.0000    0.92490   0.90060   0.68130   Biso      1.000     C          0.018878  
         C18       1.0000    0.85840   0.98330   0.68100   Biso      1.000     C          -0.082513           
         C19       1.0000    0.82460   0.50520   0.61000   Biso      1.000     C          0.562412  
         C20       1.0000    0.44620   0.56480   0.68020   Biso      1.000     C          -0.023885           
         C21       1.0000    0.59130   0.49210   0.25000   Biso      1.000     C          -0.122753           
         C22       1.0000    0.17500   0.97710   0.25000   Biso      1.000     C          0.120337  
         C23       1.0000    0.17580   0.51120   0.25000   Biso      1.000     C          -0.109802           
         C24       1.0000    0.04460   0.14070   0.25000   Biso      1.000     C          -0.151074           
         C25       1.0000    0.43740   0.26300   0.25000   Biso      1.000     C          -0.154397           
         C26       1.0000    0.00350   0.63590   0.25000   Biso      1.000     C          -0.142415           
         C27       1.0000    0.40870   0.50790   0.75000   Biso      1.000     C          -0.122753           
         C28       1.0000    0.16960   0.96100   0.38980   Biso      1.000     C          0.617583  
         C29       1.0000    0.82500   0.02290   0.75000   Biso      1.000     C          0.120337  
         C30       1.0000    0.95540   0.85930   0.75000   Biso      1.000     C          -0.151074           
         C31       1.0000    0.56260   0.73700   0.75000   Biso      1.000     C          -0.154397           
         C32       1.0000    0.99650   0.36410   0.75000   Biso      1.000     C          -0.142415           
         C33       1.0000    0.39070   0.49890   0.61040   Biso      1.000     C          0.635458  
         C34       1.0000    0.83040   0.03900   0.61020   Biso      1.000     C          0.617583  
         C35       1.0000    0.52420   0.68020   0.68050   Biso      1.000     C          -0.032322           
         C36       1.0000    0.57100   0.74750   0.60750   Biso      1.000     C          0.628475  
         C37       1.0000    0.82420   0.48880   0.75000   Biso      1.000     C          -0.109802           
         C38       1.0000    0.47580   0.31980   0.31950   Biso      1.000     C          -0.032322           
         C39       1.0000    0.55380   0.43520   0.18020   Biso      1.000     C          -0.023885           
         C40       1.0000    0.42900   0.25250   0.39250   Biso      1.000     C          0.628475  
         C41       1.0000    0.03320   0.15060   0.38860   Biso      1.000     C          0.739355  
         C42       1.0000    0.95450   0.39460   0.81910   Biso      1.000     C          -0.028675           
         C43       1.0000    0.86700   0.45810   0.81960   Biso      1.000     C          -0.024455           
         C44       1.0000    0.00690   0.35630   0.89120   Biso      1.000     C          0.723977  
         C45       1.0000    0.92490   0.90060   0.81870   Biso      1.000     C          0.018878  
         C46       1.0000    0.85840   0.98330   0.81900   Biso      1.000     C          -0.082513           
         C47       1.0000    0.82460   0.50520   0.89000   Biso      1.000     C          0.562412  
         C48       1.0000    0.44620   0.56480   0.81980   Biso      1.000     C          -0.023885           
         C49       1.0000    0.57100   0.74750   0.89250   Biso      1.000     C          0.628475  
         C50       1.0000    0.52420   0.68020   0.81950   Biso      1.000     C          -0.032322           
         C51       1.0000    0.96680   0.84940   0.88860   Biso      1.000     C          0.739355  
         C52       1.0000    0.39070   0.49890   0.88960   Biso      1.000     C          0.635458  
         C53       1.0000    0.04550   0.60540   0.31910   Biso      1.000     C          -0.028675           
         C54       1.0000    0.13300   0.54190   0.31960   Biso      1.000     C          -0.024455           
         C55       1.0000    0.99310   0.64370   0.39120   Biso      1.000     C          0.723977  
         C56       1.0000    0.07510   0.09940   0.31870   Biso      1.000     C          0.018878  
         C57       1.0000    0.14160   0.01670   0.31900   Biso      1.000     C          -0.082513           
         C58       1.0000    0.17540   0.49480   0.39000   Biso      1.000     C          0.562412  
         C59       1.0000    0.55380   0.43520   0.31980   Biso      1.000     C          -0.023885           
         C60       1.0000    0.83040   0.03900   0.88980   Biso      1.000     C          0.617583  
         H1        1.0000    0.35800   0.43080   0.75000   Biso      1.000     H          0.130464  
         H2        1.0000    0.05430   0.32200   0.75000   Biso      1.000     H          0.131289  
         H3        1.0000    0.61430   0.81360   0.75000   Biso      1.000     H          0.119316  
         H4        1.0000    0.99740   0.80250   0.75000   Biso      1.000     H          0.135385  
         H5        1.0000    0.94570   0.67800   0.25000   Biso      1.000     H          0.131289  
         H6        1.0000    0.76610   0.53060   0.75000   Biso      1.000     H          0.144328  
         H7        1.0000    0.00260   0.19750   0.25000   Biso      1.000     H          0.135385  
         H8        1.0000    0.23390   0.46940   0.25000   Biso      1.000     H          0.144328  
         H9        1.0000    0.64200   0.56920   0.25000   Biso      1.000     H          0.130464  
         H10       1.0000    0.38570   0.18640   0.25000   Biso      1.000     H          0.119316  
         O1        1.0000    0.87870   0.61420   0.39700   Biso      1.000     O          -0.616974           
         O2        1.0000    0.39250   0.30660   0.44580   Biso      1.000     O          -0.724756           
         O3        1.0000    0.06690   0.70680   0.43820   Biso      1.000     O          -0.763444           
         O4        1.0000    0.62020   0.60890   0.10540   Biso      1.000     O          -0.646346           
         O5        1.0000    0.11050   0.96410   0.05000   Biso      1.000     O          -0.610523           
         O6        1.0000    0.28010   0.47540   0.11010   Biso      1.000     O          -0.601734           
         O7        1.0000    0.10700   0.46840   0.05190   Biso      1.000     O          -0.646523           
         O8        1.0000    0.65390   0.45210   0.05740   Biso      1.000     O          -0.690273           
         O9        1.0000    0.25230   0.90690   0.11220   Biso      1.000     O          -0.648927           
         O10       1.0000    0.43050   0.14890   0.10360   Biso      1.000     O          -0.644135           
         O11       1.0000    0.11040   0.22520   0.07350   Biso      1.000     O          -0.672954           
         O12       1.0000    0.91860   0.12190   0.10000   Biso      1.000     O          -0.734963           
         O13       1.0000    0.39250   0.30660   0.05420   Biso      1.000     O          -0.724756           
         O14       1.0000    0.06690   0.70680   0.06180   Biso      1.000     O          -0.763444           
         O15       1.0000    0.37980   0.39110   0.60540   Biso      1.000     O          -0.646346           
         O16       1.0000    0.88950   0.03590   0.55000   Biso      1.000     O          -0.610523           
         O17       1.0000    0.12130   0.38580   0.60300   Biso      1.000     O          -0.616974           
         O18       1.0000    0.08140   0.87810   0.60000   Biso      1.000     O          -0.734963           
         O19       1.0000    0.88960   0.77480   0.57350   Biso      1.000     O          -0.672954           
         O20       1.0000    0.56950   0.85110   0.60360   Biso      1.000     O          -0.644135           
         O21       1.0000    0.74770   0.09310   0.61220   Biso      1.000     O          -0.648927           
         O22       1.0000    0.34610   0.54790   0.55740   Biso      1.000     O          -0.690273           
         O23       1.0000    0.89300   0.53160   0.55190   Biso      1.000     O          -0.646524           
         O24       1.0000    0.91860   0.12190   0.40000   Biso      1.000     O          -0.734963           
         O25       1.0000    0.71990   0.52460   0.61010   Biso      1.000     O          -0.601734           
         O26       1.0000    0.87870   0.61420   0.10300   Biso      1.000     O          -0.616974           
         O27       1.0000    0.11040   0.22520   0.42650   Biso      1.000     O          -0.672954           
         O28       1.0000    0.93310   0.29320   0.56180   Biso      1.000     O          -0.763443           
         O29       1.0000    0.25230   0.90690   0.38780   Biso      1.000     O          -0.648927           
         O30       1.0000    0.60750   0.69340   0.55420   Biso      1.000     O          -0.724756           
         O31       1.0000    0.37980   0.39110   0.89460   Biso      1.000     O          -0.646346           
         O32       1.0000    0.88950   0.03590   0.95000   Biso      1.000     O          -0.610523           
         O33       1.0000    0.71990   0.52460   0.88990   Biso      1.000     O          -0.601734           
         O34       1.0000    0.89300   0.53160   0.94810   Biso      1.000     O          -0.646523           
         O35       1.0000    0.43050   0.14890   0.39640   Biso      1.000     O          -0.644135           
         O36       1.0000    0.74770   0.09310   0.88780   Biso      1.000     O          -0.648927           
         O37       1.0000    0.56950   0.85110   0.89640   Biso      1.000     O          -0.644135           
         O38       1.0000    0.88960   0.77480   0.92650   Biso      1.000     O          -0.672954           
         O39       1.0000    0.34610   0.54790   0.94260   Biso      1.000     O          -0.690273           
         O40       1.0000    0.12130   0.38580   0.89700   Biso      1.000     O          -0.616974           
         O41       1.0000    0.60750   0.69340   0.94580   Biso      1.000     O          -0.724756           
         O42       1.0000    0.93310   0.29320   0.93820   Biso      1.000     O          -0.763444           
         O43       1.0000    0.62020   0.60890   0.39460   Biso      1.000     O          -0.646346           
         O44       1.0000    0.11050   0.96410   0.45000   Biso      1.000     O          -0.610522           
         O45       1.0000    0.28010   0.47540   0.38990   Biso      1.000     O          -0.601734           
         O46       1.0000    0.10700   0.46840   0.44810   Biso      1.000     O          -0.646523           
         O47       1.0000    0.65390   0.45210   0.44260   Biso      1.000     O          -0.690273           
         O48       1.0000    0.08140   0.87810   0.90000   Biso      1.000     O          -0.734963           
         Tm1       1.0000    0.20569   0.83216   0.98720   Biso      1.000     Tm          2.160806  
         Tm2       1.0000    0.23855   0.35657   0.50175   Biso      1.000     Tm          2.056118  
         Tm3       1.0000    0.79431   0.16784   0.48720   Biso      1.000     Tm          2.160806  
         Tm4       1.0000    0.20569   0.83216   0.51280   Biso      1.000     Tm          2.160806  
         Tm5       1.0000    0.79431   0.16784   0.01280   Biso      1.000     Tm          2.160806  
         Tm6       1.0000    0.76145   0.64343   0.49825   Biso      1.000     Tm          2.056118  
         Tm7       1.0000    0.23855   0.35657   0.99825   Biso      1.000     Tm          2.056118  
         Tm8       1.0000    0.76145   0.64343   0.00175   Biso      1.000     Tm          2.056118 