
##########################################################################
#               Crystallographic Information Format file
#               Produced by PyCifRW module
#
#  This is a CIF file.  CIF has been adopted by the International
#  Union of Crystallography as the standard for data archiving and
#  transmission.
#
#  For information on this file format, follow the CIF links at
#  http://www.iucr.org
##########################################################################

data_image0

_cell_length_a                          8.6027
_cell_length_b                          13.2648
_cell_length_c                          14.942
_cell_angle_alpha                       83.5649
_cell_angle_beta                        73.2695
_cell_angle_gamma                       71.0787
_symmetry_space_group_name_H-M          'P 1'
_symmetry_int_tables_number             1
loop_
  _symmetry_equiv_pos_as_xyz
         'x, y, z' 
loop_
  _atom_site_label
  _atom_site_occupancy
  _atom_site_fract_x
  _atom_site_fract_y
  _atom_site_fract_z
  _atom_site_thermal_displace_type
  _atom_site_B_iso_or_equiv
  _atom_site_type_symbol
  _atom_site_charge
         C1        1.0000    0.11529   0.04872   0.17150   Biso      1.000     C          0.596855  
         C2        1.0000    0.11529   0.81741   0.34161   Biso      1.000     C          -0.107652           
         C3        1.0000    0.16344   0.89682   0.28270   Biso      1.000     C          -0.108819           
         C4        1.0000    0.05230   0.96758   0.23642   Biso      1.000     C          -0.015585           
         C5        1.0000    0.21120   0.80010   0.58490   Biso      1.000     C          0.13816199999999998           
         C6        1.0000    0.06555   0.87210   0.56900   Biso      1.000     C          -0.156746           
         C7        1.0000    0.07590   0.96140   0.51180   Biso      1.000     C          0.11023800000000002           
         C8        1.0000    0.23615   0.97440   0.47750   Biso      1.000     C          -0.163252           
         C9        1.0000    0.37546   0.89858   0.49690   Biso      1.000     C          0.10065199999999999           
         C10       1.0000    0.89918   0.46028   0.75276   Biso      1.000     C          -0.100575           
         C11       1.0000    0.96571   0.38184   0.81294   Biso      1.000     C          -0.130734           
         C12       1.0000    0.96019   0.22362   0.91960   Biso      1.000     C          0.603007  
         C13       1.0000    0.88013   0.30933   0.85641   Biso      1.000     C          -0.025735           
         C14       1.0000    0.65704   0.39682   0.78270   Biso      1.000     C          -0.10829100000000001          
         C15       1.0000    0.74370   0.46758   0.73642   Biso      1.000     C          -0.01584  
         C16       1.0000    0.66449   0.54872   0.67150   Biso      1.000     C          0.597734  
         C17       1.0000    0.59620   0.69990   0.91510   Biso      1.000     C          0.140794  
         C18       1.0000    0.50665   0.62790   0.93100   Biso      1.000     C          -0.15874000000000002          
         C19       1.0000    0.95413   0.80933   0.35641   Biso      1.000     C          -0.026025           
         C20       1.0000    0.89659   0.72362   0.41960   Biso      1.000     C          0.604403  
         C21       1.0000    0.83951   0.88184   0.31294   Biso      1.000     C          -0.129497           
         C22       1.0000    0.88778   0.96028   0.25276   Biso      1.000     C          -0.100884           
         C23       1.0000    0.78880   0.19990   0.41510   Biso      1.000     C          0.13816199999999998           
         C24       1.0000    0.93445   0.12790   0.43100   Biso      1.000     C          -0.156746           
         C25       1.0000    0.92410   0.03860   0.48820   Biso      1.000     C          0.11023800000000002           
         C26       1.0000    0.76385   0.02560   0.52250   Biso      1.000     C          -0.163252           
         C27       1.0000    0.62454   0.10142   0.50310   Biso      1.000     C          0.10065199999999999           
         C28       1.0000    0.10082   0.53972   0.24724   Biso      1.000     C          -0.100575           
         C29       1.0000    0.03429   0.61816   0.18706   Biso      1.000     C          -0.130734           
         C30       1.0000    0.03981   0.77638   0.08040   Biso      1.000     C          0.603007  
         C31       1.0000    0.54910   0.53860   0.98820   Biso      1.000     C          0.111555  
         C32       1.0000    0.11987   0.69067   0.14359   Biso      1.000     C          -0.025735           
         C33       1.0000    0.34296   0.60318   0.21730   Biso      1.000     C          -0.10829100000000001          
         C34       1.0000    0.25630   0.53242   0.26358   Biso      1.000     C          -0.01584  
         C35       1.0000    0.33551   0.45128   0.32850   Biso      1.000     C          0.597734  
         C36       1.0000    0.40380   0.30010   0.08490   Biso      1.000     C          0.140794  
         C37       1.0000    0.49335   0.37210   0.06900   Biso      1.000     C          -0.15874000000000002          
         C38       1.0000    0.45090   0.46140   0.01180   Biso      1.000     C          0.111555  
         C39       1.0000    0.31195   0.47440   0.97750   Biso      1.000     C          -0.16494  
         C40       1.0000    0.22906   0.39858   0.99690   Biso      1.000     C          0.10281300000000002           
         C41       1.0000    0.27431   0.68259   0.15839   Biso      1.000     C          -0.105377           
         C42       1.0000    0.68805   0.52560   0.02250   Biso      1.000     C          -0.16494  
         C43       1.0000    0.72569   0.31741   0.84161   Biso      1.000     C          -0.105377           
         C44       1.0000    0.11222   0.03972   0.74724   Biso      1.000     C          -0.100884           
         C45       1.0000    0.16049   0.11816   0.68706   Biso      1.000     C          -0.129496           
         C46       1.0000    0.10341   0.27638   0.58040   Biso      1.000     C          0.604403  
         C47       1.0000    0.04587   0.19067   0.64359   Biso      1.000     C          -0.026026           
         C48       1.0000    0.88471   0.18259   0.65839   Biso      1.000     C          -0.107651           
         C49       1.0000    0.83656   0.10318   0.71730   Biso      1.000     C          -0.108819           
         C50       1.0000    0.94770   0.03242   0.76358   Biso      1.000     C          -0.015585           
         C51       1.0000    0.88471   0.95128   0.82850   Biso      1.000     C          0.596855  
         C52       1.0000    0.77094   0.60142   0.00310   Biso      1.000     C          0.10281300000000002           
         H1        1.0000    0.96030   0.86130   0.59630   Biso      1.000     H          0.147004  
         H2        1.0000    0.24940   0.03440   0.44140   Biso      1.000     H          0.142808  
         H3        1.0000    0.48170   0.90890   0.47270   Biso      1.000     H          0.096676  
         H4        1.0000    0.06840   0.37760   0.82440   Biso      1.000     H          0.12928499999999998           
         H5        1.0000    0.55160   0.40270   0.77410   Biso      1.000     H          0.129143  
         H6        1.0000    0.86330   0.59110   0.02730   Biso      1.000     H          0.096274  
         H7        1.0000    0.41790   0.63870   0.90370   Biso      1.000     H          0.14721800000000002           
         H8        1.0000    0.72520   0.46560   0.05860   Biso      1.000     H          0.143119  
         H9        1.0000    0.20120   0.74080   0.62280   Biso      1.000     H          0.113259  
         H10       1.0000    0.27040   0.12240   0.67560   Biso      1.000     H          0.12951   
         H11       1.0000    0.80830   0.23040   0.62880   Biso      1.000     H          0.118296  
         H12       1.0000    0.72840   0.09730   0.72590   Biso      1.000     H          0.130188  
         H13       1.0000    0.56480   0.75920   0.87720   Biso      1.000     H          0.11343900000000001           
         H14       1.0000    0.27160   0.90270   0.27410   Biso      1.000     H          0.130188  
         H15       1.0000    0.66750   0.26960   0.87120   Biso      1.000     H          0.117424  
         H16       1.0000    0.72960   0.87760   0.32440   Biso      1.000     H          0.12951   
         H17       1.0000    0.19170   0.76960   0.37120   Biso      1.000     H          0.118296  
         H18       1.0000    0.79880   0.25920   0.37720   Biso      1.000     H          0.113259  
         H19       1.0000    0.75060   0.96560   0.55860   Biso      1.000     H          0.142808  
         H20       1.0000    0.51830   0.09110   0.52730   Biso      1.000     H          0.096676  
         H21       1.0000    0.93160   0.62240   0.17560   Biso      1.000     H          0.12928499999999998           
         H22       1.0000    0.33250   0.73040   0.12880   Biso      1.000     H          0.117424  
         H23       1.0000    0.03970   0.13870   0.40370   Biso      1.000     H          0.147004  
         H24       1.0000    0.43520   0.24080   0.12280   Biso      1.000     H          0.11343900000000001           
         H25       1.0000    0.58210   0.36130   0.09630   Biso      1.000     H          0.14721800000000002           
         H26       1.0000    0.27480   0.53440   0.94140   Biso      1.000     H          0.14312   
         H27       1.0000    0.13670   0.40890   0.97270   Biso      1.000     H          0.096274  
         H28       1.0000    0.44840   0.59730   0.22590   Biso      1.000     H          0.129143  
         N1        1.0000    0.36612   0.81064   0.54892   Biso      1.000     N          -0.233089           
         N2        1.0000    0.63388   0.18936   0.45108   Biso      1.000     N          -0.23309000000000002          
         N3        1.0000    0.27432   0.31064   0.04892   Biso      1.000     N          -0.23638  
         N4        1.0000    0.72568   0.68936   0.95108   Biso      1.000     N          -0.23638  
         O1        1.0000    0.09316   0.23187   0.93481   Biso      1.000     O          -0.5726479999999999           
         O2        1.0000    0.13772   0.53700   0.75756   Biso      1.000     O          -0.610398           
         O3        1.0000    0.10703   0.51884   0.60650   Biso      1.000     O          -0.640079           
         O4        1.0000    0.89615   0.65640   0.71110   Biso      1.000     O          -0.613735           
         O5        1.0000    0.08965   0.06277   0.08953   Biso      1.000     O          -0.571224           
         O6        1.0000    0.18869   0.10255   0.19507   Biso      1.000     O          -0.485451           
         O7        1.0000    0.90684   0.76813   0.06519   Biso      1.000     O          -0.5726479999999999           
         O8        1.0000    0.74016   0.73187   0.43481   Biso      1.000     O          -0.573952           
         O9        1.0000    0.56772   0.03700   0.25756   Biso      1.000     O          -0.6116199999999999           
         O10       1.0000    0.76763   0.01884   0.10650   Biso      1.000     O          -0.640718           
         O11       1.0000    0.86228   0.46300   0.24244   Biso      1.000     O          -0.610398           
         O12       1.0000    0.10671   0.84768   0.04910   Biso      1.000     O          -0.54003  
         O13       1.0000    0.48631   0.39745   0.30493   Biso      1.000     O          -0.485306           
         O14       1.0000    0.24195   0.43723   0.41047   Biso      1.000     O          -0.5712109999999999           
         O15       1.0000    0.89329   0.15232   0.95090   Biso      1.000     O          -0.54003  
         O16       1.0000    0.73635   0.15640   0.21110   Biso      1.000     O          -0.613631           
         O17       1.0000    0.00349   0.65232   0.45090   Biso      1.000     O          -0.540412           
         O18       1.0000    0.51369   0.60255   0.69507   Biso      1.000     O          -0.48530500000000004          
         O19       1.0000    0.10385   0.34360   0.28890   Biso      1.000     O          -0.613735           
         O20       1.0000    0.26365   0.84360   0.78890   Biso      1.000     O          -0.613632           
         O21       1.0000    0.23237   0.98116   0.89350   Biso      1.000     O          -0.640718           
         O22       1.0000    0.43228   0.96300   0.74244   Biso      1.000     O          -0.6116199999999999           
         O23       1.0000    0.25984   0.26813   0.56519   Biso      1.000     O          -0.5739529999999999           
         O24       1.0000    0.99651   0.34768   0.54910   Biso      1.000     O          -0.540412           
         O25       1.0000    0.81131   0.89745   0.80493   Biso      1.000     O          -0.485451           
         O26       1.0000    0.91035   0.93723   0.91047   Biso      1.000     O          -0.571224           
         O27       1.0000    0.89297   0.48116   0.39350   Biso      1.000     O          -0.640079           
         O28       1.0000    0.75805   0.56277   0.58953   Biso      1.000     O          -0.5712109999999999           
         S1        1.0000    0.27238   0.94884   0.79630   Biso      1.000     S          1.188817  
         S2        1.0000    0.01752   0.55116   0.70370   Biso      1.000     S          1.1871909999999999  
         S3        1.0000    0.98248   0.44884   0.29630   Biso      1.000     S          1.1871909999999999  
         S4        1.0000    0.72762   0.05116   0.20370   Biso      1.000     S          1.188817  
         Zn1       1.0000    0.00000   0.50000   0.50000   Biso      1.000     Zn          1.055826  
         Zn2       1.0000    0.00000   0.00000   0.00000   Biso      1.000     Zn          1.057631  
         Zn3       1.0000    0.41345   0.30234   0.44570   Biso      1.000     Zn          0.932753  
         Zn4       1.0000    0.16149   0.19766   0.05430   Biso      1.000     Zn          0.933232  
         Zn5       1.0000    0.58655   0.69766   0.55430   Biso      1.000     Zn          0.9327540000000001  
         Zn6       1.0000    0.83851   0.80234   0.94570   Biso      1.000     Zn          0.933233 