
##########################################################################
#               Crystallographic Information Format file
#               Produced by PyCifRW module
#
#  This is a CIF file.  CIF has been adopted by the International
#  Union of Crystallography as the standard for data archiving and
#  transmission.
#
#  For information on this file format, follow the CIF links at
#  http://www.iucr.org
##########################################################################

data_image0

_cell_length_a                          8.1939
_cell_length_b                          12.857
_cell_length_c                          17.789
_cell_angle_alpha                       99.86
_cell_angle_beta                        90
_cell_angle_gamma                       90
_symmetry_space_group_name_H-M          'P 1'
_symmetry_int_tables_number             1
loop_
  _symmetry_equiv_pos_as_xyz
         'x, y, z' 
loop_
  _atom_site_label
  _atom_site_occupancy
  _atom_site_fract_x
  _atom_site_fract_y
  _atom_site_fract_z
  _atom_site_thermal_displace_type
  _atom_site_B_iso_or_equiv
  _atom_site_type_symbol
  _atom_site_charge
         C1        1.0000    0.83850   0.66000   0.76600   Biso      1.000     C          0.601993  
         C2        1.0000    0.10880   0.14460   0.23150   Biso      1.000     C          -0.071983           
         C3        1.0000    0.17130   0.23980   0.26910   Biso      1.000     C          -0.054951           
         C4        1.0000    0.24090   0.24440   0.34020   Biso      1.000     C          -0.045946           
         C5        1.0000    0.16150   0.34000   0.23400   Biso      1.000     C          0.6019939999999999  
         C6        1.0000    0.43090   0.72860   0.24210   Biso      1.000     C          0.597849  
         C7        1.0000    0.44070   0.80110   0.31840   Biso      1.000     C          -0.010383           
         C8        1.0000    0.39820   0.79310   0.39290   Biso      1.000     C          -0.005775           
         C9        1.0000    0.32600   0.70900   0.43280   Biso      1.000     C          0.611737  
         C10       1.0000    0.68200   0.43480   0.16070   Biso      1.000     C          -0.032493           
         C11       1.0000    0.61260   0.44330   0.23150   Biso      1.000     C          -0.088652           
         C12       1.0000    0.60880   0.35540   0.26850   Biso      1.000     C          -0.072002           
         C13       1.0000    0.11260   0.05670   0.26850   Biso      1.000     C          -0.088649           
         C14       1.0000    0.67130   0.26020   0.23090   Biso      1.000     C          -0.054947           
         C15       1.0000    0.66150   0.16000   0.26600   Biso      1.000     C          0.601984  
         C16       1.0000    0.06910   0.22860   0.74210   Biso      1.000     C          0.59787   
         C17       1.0000    0.05930   0.30110   0.81840   Biso      1.000     C          -0.010402           
         C18       1.0000    0.10180   0.29310   0.89290   Biso      1.000     C          -0.005788000000000001         
         C19       1.0000    0.17400   0.20900   0.93280   Biso      1.000     C          0.611744  
         C20       1.0000    0.81800   0.93480   0.66070   Biso      1.000     C          -0.032493           
         C21       1.0000    0.88740   0.94330   0.73150   Biso      1.000     C          -0.088662           
         C22       1.0000    0.89120   0.85540   0.76850   Biso      1.000     C          -0.071991           
         C23       1.0000    0.82870   0.76020   0.73090   Biso      1.000     C          -0.054935000000000005         
         C24       1.0000    0.75910   0.75560   0.65980   Biso      1.000     C          -0.045939999999999995         
         C25       1.0000    0.60180   0.20690   0.60710   Biso      1.000     C          -0.005768           
         C26       1.0000    0.74090   0.25560   0.15980   Biso      1.000     C          -0.045947           
         C27       1.0000    0.18200   0.06520   0.33930   Biso      1.000     C          -0.032483           
         C28       1.0000    0.82600   0.79100   0.06720   Biso      1.000     C          0.611714  
         C29       1.0000    0.89820   0.70690   0.10710   Biso      1.000     C          -0.005769           
         C30       1.0000    0.33850   0.84000   0.73400   Biso      1.000     C          0.601999  
         C31       1.0000    0.25910   0.74440   0.84020   Biso      1.000     C          -0.045946           
         C32       1.0000    0.32870   0.73980   0.76910   Biso      1.000     C          -0.054942           
         C33       1.0000    0.39120   0.64460   0.73150   Biso      1.000     C          -0.072    
         C34       1.0000    0.38740   0.55670   0.76850   Biso      1.000     C          -0.08867  
         C35       1.0000    0.31800   0.56520   0.83930   Biso      1.000     C          -0.032483           
         C36       1.0000    0.67400   0.29100   0.56720   Biso      1.000     C          0.61173   
         C37       1.0000    0.56910   0.27140   0.75790   Biso      1.000     C          0.59787   
         C38       1.0000    0.55930   0.19890   0.68160   Biso      1.000     C          -0.010397           
         C39       1.0000    0.94070   0.69890   0.18160   Biso      1.000     C          -0.010386           
         C40       1.0000    0.93090   0.77140   0.25790   Biso      1.000     C          0.597855  
         H1        1.0000    0.81550   0.99310   0.63610   Biso      1.000     H          0.134964  
         H2        1.0000    0.21570   0.80770   0.86540   Biso      1.000     H          0.145265  
         H3        1.0000    0.43480   0.63920   0.68270   Biso      1.000     H          0.136024  
         H4        1.0000    0.43190   0.49270   0.74500   Biso      1.000     H          0.140645  
         H5        1.0000    0.31550   0.50690   0.86390   Biso      1.000     H          0.13496   
         H6        1.0000    0.71570   0.69230   0.63460   Biso      1.000     H          0.145273  
         H7        1.0000    0.18450   0.00690   0.36390   Biso      1.000     H          0.134948  
         H8        1.0000    0.06810   0.99270   0.24500   Biso      1.000     H          0.14064400000000002           
         H9        1.0000    0.06520   0.13920   0.18270   Biso      1.000     H          0.136019  
         H10       1.0000    0.28430   0.30770   0.36540   Biso      1.000     H          0.145249  
         H11       1.0000    0.68450   0.49310   0.13610   Biso      1.000     H          0.134951  
         H12       1.0000    0.93480   0.86080   0.81730   Biso      1.000     H          0.136034  
         H13       1.0000    0.56520   0.36080   0.31730   Biso      1.000     H          0.13601400000000002           
         H14       1.0000    0.78430   0.19230   0.13460   Biso      1.000     H          0.145249  
         H15       1.0000    0.93190   0.00730   0.75500   Biso      1.000     H          0.140652  
         H16       1.0000    0.56810   0.50730   0.25500   Biso      1.000     H          0.14064100000000002           
         Mn1       1.0000    0.08493   0.38411   0.06467   Biso      1.000     Mn          0.871828  
         Mn2       1.0000    0.35653   0.08374   0.78870   Biso      1.000     Mn          0.9928290000000001  
         Mn3       1.0000    0.41507   0.88411   0.56467   Biso      1.000     Mn          0.871848  
         Mn4       1.0000    0.85653   0.41626   0.71130   Biso      1.000     Mn          0.9926950000000001  
         Mn5       1.0000    0.91507   0.61589   0.93533   Biso      1.000     Mn          0.871813  
         Mn6       1.0000    0.64347   0.91626   0.21130   Biso      1.000     Mn          0.99241   
         Mn7       1.0000    0.58493   0.11589   0.43533   Biso      1.000     Mn          0.8719180000000001  
         Mn8       1.0000    0.14347   0.58374   0.28870   Biso      1.000     Mn          0.9926200000000001  
         N1        1.0000    0.25340   0.65780   0.87360   Biso      1.000     N          0.334879  
         N2        1.0000    0.55520   0.11530   0.56222   Biso      1.000     N          -0.200226           
         N3        1.0000    0.48880   0.05310   0.60714   Biso      1.000     N          -0.057180999999999996         
         N4        1.0000    0.48990   0.10190   0.67989   Biso      1.000     N          -0.234862           
         N5        1.0000    0.75340   0.84220   0.62640   Biso      1.000     N          0.33488   
         N6        1.0000    0.98880   0.44690   0.89286   Biso      1.000     N          -0.057205           
         N7        1.0000    0.98990   0.39810   0.82011   Biso      1.000     N          -0.23485100000000003          
         N8        1.0000    0.05520   0.38470   0.93778   Biso      1.000     N          -0.200193           
         N9        1.0000    0.44480   0.88470   0.43778   Biso      1.000     N          -0.20029  
         N10       1.0000    0.51120   0.94690   0.39286   Biso      1.000     N          -0.057236           
         N11       1.0000    0.51010   0.89810   0.32011   Biso      1.000     N          -0.23478400000000002          
         N12       1.0000    0.24660   0.15780   0.37360   Biso      1.000     N          0.334876  
         N13       1.0000    0.94480   0.61530   0.06222   Biso      1.000     N          -0.200276           
         N14       1.0000    0.01120   0.55310   0.10714   Biso      1.000     N          -0.057218           
         N15       1.0000    0.01010   0.60190   0.17989   Biso      1.000     N          -0.23482600000000003          
         N16       1.0000    0.74660   0.34220   0.12640   Biso      1.000     N          0.334879  
         O1        1.0000    0.14700   0.14500   0.73452   Biso      1.000     O          -0.5421159999999999           
         O2        1.0000    0.23000   0.12560   0.89512   Biso      1.000     O          -0.540758           
         O3        1.0000    0.17090   0.22880   0.00492   Biso      1.000     O          -0.5331359999999999           
         O4        1.0000    0.67850   0.83670   0.55721   Biso      1.000     O          -0.48861800000000005          
         O5        1.0000    0.78170   0.57730   0.72723   Biso      1.000     O          -0.548144           
         O6        1.0000    0.73000   0.37440   0.60488   Biso      1.000     O          -0.540732           
         O7        1.0000    0.48830   0.24010   0.81163   Biso      1.000     O          -0.5728310000000001           
         O8        1.0000    0.64700   0.35500   0.76548   Biso      1.000     O          -0.542084           
         O9        1.0000    0.67090   0.27120   0.49508   Biso      1.000     O          -0.533137           
         O10       1.0000    0.17850   0.66330   0.94279   Biso      1.000     O          -0.48861499999999997          
         O11       1.0000    0.98830   0.25990   0.68837   Biso      1.000     O          -0.572824           
         O12       1.0000    0.90800   0.66840   0.82972   Biso      1.000     O          -0.539676           
         O13       1.0000    0.59200   0.16840   0.32972   Biso      1.000     O          -0.539719           
         O14       1.0000    0.77000   0.87440   0.10488   Biso      1.000     O          -0.5407310000000001           
         O15       1.0000    0.82150   0.33670   0.05721   Biso      1.000     O          -0.488696           
         O16       1.0000    0.32910   0.72880   0.50492   Biso      1.000     O          -0.533213           
         O17       1.0000    0.27000   0.62560   0.39512   Biso      1.000     O          -0.540738           
         O18       1.0000    0.35300   0.64500   0.23452   Biso      1.000     O          -0.542121           
         O19       1.0000    0.51170   0.75990   0.18837   Biso      1.000     O          -0.572838           
         O20       1.0000    0.09200   0.33160   0.17028   Biso      1.000     O          -0.539696           
         O21       1.0000    0.21830   0.42270   0.27277   Biso      1.000     O          -0.548135           
         O22       1.0000    0.32150   0.16330   0.44279   Biso      1.000     O          -0.488713           
         O23       1.0000    0.82910   0.77120   0.99508   Biso      1.000     O          -0.5332279999999999           
         O24       1.0000    0.28170   0.92270   0.77277   Biso      1.000     O          -0.548153           
         O25       1.0000    0.85300   0.85500   0.26548   Biso      1.000     O          -0.542103           
         O26       1.0000    0.01170   0.74010   0.31163   Biso      1.000     O          -0.572873           
         O27       1.0000    0.71830   0.07730   0.22723   Biso      1.000     O          -0.54811  
         O28       1.0000    0.40800   0.83160   0.67028   Biso      1.000     O          -0.539683 