
##########################################################################
#               Crystallographic Information Format file
#               Produced by PyCifRW module
#
#  This is a CIF file.  CIF has been adopted by the International
#  Union of Crystallography as the standard for data archiving and
#  transmission.
#
#  For information on this file format, follow the CIF links at
#  http://www.iucr.org
##########################################################################

data_image0

_cell_length_a                          18.707
_cell_length_b                          10.182
_cell_length_c                          20.353
_cell_angle_alpha                       90
_cell_angle_beta                        90
_cell_angle_gamma                       90
_symmetry_space_group_name_H-M          'P 1'
_symmetry_int_tables_number             1
loop_
  _symmetry_equiv_pos_as_xyz
         'x, y, z' 
loop_
  _atom_site_label
  _atom_site_occupancy
  _atom_site_fract_x
  _atom_site_fract_y
  _atom_site_fract_z
  _atom_site_thermal_displace_type
  _atom_site_B_iso_or_equiv
  _atom_site_type_symbol
  _atom_site_charge
         C1        1.0000    0.57841   0.62240   0.43932   Biso      1.000     C          0.631966  
         C2        1.0000    0.72667   0.38850   0.24599   Biso      1.000     C          0.49533   
         C3        1.0000    0.91234   0.60810   0.40525   Biso      1.000     C          0.560047  
         C4        1.0000    0.82538   0.22630   0.37109   Biso      1.000     C          -0.205243           
         C5        1.0000    0.42159   0.62240   0.06068   Biso      1.000     C          0.631966  
         C6        1.0000    0.38547   0.74040   0.08849   Biso      1.000     C          -0.00975  
         C7        1.0000    0.41406   0.86450   0.07783   Biso      1.000     C          -0.11959  
         C8        1.0000    0.58429   0.46270   0.12178   Biso      1.000     C          0.089831  
         C9        1.0000    0.38370   0.97270   0.10678   Biso      1.000     C          -0.005036           
         C10       1.0000    0.29390   0.83580   0.15683   Biso      1.000     C          0.270386  
         C11       1.0000    0.32538   0.72630   0.12891   Biso      1.000     C          -0.205241           
         C12       1.0000    0.41234   0.10810   0.09475   Biso      1.000     C          0.560046  
         C13       1.0000    0.22667   0.88850   0.25401   Biso      1.000     C          0.49533   
         C14       1.0000    0.08429   0.96270   0.37822   Biso      1.000     C          0.089832  
         C15       1.0000    0.14456   0.97030   0.33831   Biso      1.000     C          -0.141635           
         C16       1.0000    0.32318   0.95990   0.14626   Biso      1.000     C          -0.200948           
         C17       1.0000    0.45082   0.26570   0.32424   Biso      1.000     C          0.091458  
         C18       1.0000    0.39126   0.27200   0.28370   Biso      1.000     C          -0.147404           
         C19       1.0000    0.34305   0.37560   0.29095   Biso      1.000     C          0.031501  
         C20       1.0000    0.60874   0.72800   0.71630   Biso      1.000     C          -0.147407           
         C21       1.0000    0.54918   0.73430   0.67576   Biso      1.000     C          0.091461  
         C22       1.0000    0.60874   0.27200   0.21630   Biso      1.000     C          -0.147407           
         C23       1.0000    0.65695   0.37560   0.20905   Biso      1.000     C          0.031501  
         C24       1.0000    0.64456   0.47030   0.16169   Biso      1.000     C          -0.141634           
         C25       1.0000    0.07841   0.12240   0.06068   Biso      1.000     C          0.631965  
         C26       1.0000    0.11453   0.24040   0.08849   Biso      1.000     C          -0.00975  
         C27       1.0000    0.08594   0.36450   0.07783   Biso      1.000     C          -0.11959  
         C28       1.0000    0.11630   0.47270   0.10678   Biso      1.000     C          -0.005036           
         C29       1.0000    0.17682   0.45990   0.14626   Biso      1.000     C          -0.200948           
         C30       1.0000    0.20610   0.33580   0.15683   Biso      1.000     C          0.270386  
         C31       1.0000    0.17462   0.22630   0.12891   Biso      1.000     C          -0.205241           
         C32       1.0000    0.08766   0.60810   0.09475   Biso      1.000     C          0.560046  
         C33       1.0000    0.27333   0.38850   0.25401   Biso      1.000     C          0.49533   
         C34       1.0000    0.35544   0.47030   0.33831   Biso      1.000     C          -0.141634           
         C35       1.0000    0.15695   0.87560   0.29095   Biso      1.000     C          0.031502  
         C36       1.0000    0.65695   0.62440   0.70905   Biso      1.000     C          0.031501  
         C37       1.0000    0.10874   0.77200   0.28370   Biso      1.000     C          -0.147406           
         C38       1.0000    0.79390   0.33580   0.34317   Biso      1.000     C          0.270389  
         C39       1.0000    0.07841   0.87760   0.56068   Biso      1.000     C          0.631966  
         C40       1.0000    0.11453   0.75960   0.58849   Biso      1.000     C          -0.00975  
         C41       1.0000    0.08594   0.63550   0.57783   Biso      1.000     C          -0.11959  
         C42       1.0000    0.11630   0.52730   0.60678   Biso      1.000     C          -0.005036           
         C43       1.0000    0.17682   0.54010   0.64626   Biso      1.000     C          -0.200948           
         C44       1.0000    0.20610   0.66420   0.65683   Biso      1.000     C          0.270386  
         C45       1.0000    0.92159   0.12240   0.43932   Biso      1.000     C          0.631966  
         C46       1.0000    0.17462   0.77370   0.62891   Biso      1.000     C          -0.205241           
         C47       1.0000    0.27333   0.61150   0.75401   Biso      1.000     C          0.49533   
         C48       1.0000    0.41571   0.53730   0.87822   Biso      1.000     C          0.089832  
         C49       1.0000    0.35544   0.52970   0.83831   Biso      1.000     C          -0.141635           
         C50       1.0000    0.34305   0.62440   0.79095   Biso      1.000     C          0.031502  
         C51       1.0000    0.39126   0.72800   0.78370   Biso      1.000     C          -0.147406           
         C52       1.0000    0.45082   0.73430   0.82424   Biso      1.000     C          0.091461  
         C53       1.0000    0.08766   0.39190   0.59475   Biso      1.000     C          0.560046  
         C54       1.0000    0.88547   0.24040   0.41151   Biso      1.000     C          -0.00975  
         C55       1.0000    0.91406   0.36450   0.42217   Biso      1.000     C          -0.11959  
         C56       1.0000    0.95082   0.23430   0.67576   Biso      1.000     C          0.091457  
         C57       1.0000    0.82318   0.45990   0.35374   Biso      1.000     C          -0.200948           
         C58       1.0000    0.88370   0.47270   0.39322   Biso      1.000     C          -0.005037           
         C59       1.0000    0.57841   0.37760   0.93932   Biso      1.000     C          0.631965  
         C60       1.0000    0.61453   0.25960   0.91151   Biso      1.000     C          -0.00975  
         C61       1.0000    0.58594   0.13550   0.92217   Biso      1.000     C          -0.11959  
         C62       1.0000    0.61630   0.02730   0.89322   Biso      1.000     C          -0.005036           
         C63       1.0000    0.67682   0.04010   0.85374   Biso      1.000     C          -0.200948           
         C64       1.0000    0.70610   0.16420   0.84317   Biso      1.000     C          0.270386  
         C65       1.0000    0.67462   0.27370   0.87109   Biso      1.000     C          -0.205241           
         C66       1.0000    0.58766   0.89190   0.90525   Biso      1.000     C          0.560046  
         C67       1.0000    0.77333   0.11150   0.74599   Biso      1.000     C          0.49533   
         C68       1.0000    0.91571   0.03730   0.62178   Biso      1.000     C          0.089832  
         C69       1.0000    0.85544   0.02970   0.66169   Biso      1.000     C          -0.141635           
         C70       1.0000    0.84305   0.12440   0.70905   Biso      1.000     C          0.031501  
         C71       1.0000    0.89126   0.22800   0.71630   Biso      1.000     C          -0.147403           
         C72       1.0000    0.04918   0.76570   0.32424   Biso      1.000     C          0.091461  
         C73       1.0000    0.64456   0.52970   0.66169   Biso      1.000     C          -0.141634           
         C74       1.0000    0.41571   0.46270   0.37822   Biso      1.000     C          0.089832  
         C75       1.0000    0.58429   0.53730   0.62178   Biso      1.000     C          0.089831  
         C76       1.0000    0.15695   0.12440   0.79095   Biso      1.000     C          0.0315    
         C77       1.0000    0.14456   0.02970   0.83831   Biso      1.000     C          -0.141634           
         C78       1.0000    0.08429   0.03730   0.87822   Biso      1.000     C          0.089831  
         C79       1.0000    0.22667   0.11150   0.75401   Biso      1.000     C          0.49533   
         C80       1.0000    0.41234   0.89190   0.59475   Biso      1.000     C          0.560047  
         C81       1.0000    0.32538   0.27370   0.62891   Biso      1.000     C          -0.205243           
         C82       1.0000    0.29390   0.16420   0.65683   Biso      1.000     C          0.270389  
         C83       1.0000    0.38370   0.02730   0.60678   Biso      1.000     C          -0.005042           
         C84       1.0000    0.41406   0.13550   0.57783   Biso      1.000     C          -0.119584           
         C85       1.0000    0.38547   0.25960   0.58849   Biso      1.000     C          -0.00975  
         C86       1.0000    0.42159   0.37760   0.56068   Biso      1.000     C          0.631965  
         C87       1.0000    0.10874   0.22800   0.78370   Biso      1.000     C          -0.147406           
         C88       1.0000    0.95082   0.76570   0.17576   Biso      1.000     C          0.091457  
         C89       1.0000    0.84305   0.87560   0.20905   Biso      1.000     C          0.0315    
         C90       1.0000    0.85544   0.97030   0.16169   Biso      1.000     C          -0.141634           
         C91       1.0000    0.91571   0.96270   0.12178   Biso      1.000     C          0.089831  
         C92       1.0000    0.77333   0.88850   0.24599   Biso      1.000     C          0.49533   
         C93       1.0000    0.58766   0.10810   0.40525   Biso      1.000     C          0.560048  
         C94       1.0000    0.67462   0.72630   0.37109   Biso      1.000     C          -0.205243           
         C95       1.0000    0.70610   0.83580   0.34317   Biso      1.000     C          0.270389  
         C96       1.0000    0.67682   0.95990   0.35374   Biso      1.000     C          -0.200947           
         C97       1.0000    0.61630   0.97270   0.39322   Biso      1.000     C          -0.005042           
         C98       1.0000    0.58594   0.86450   0.42217   Biso      1.000     C          -0.119584           
         C99       1.0000    0.61453   0.74040   0.41151   Biso      1.000     C          -0.00975  
         C100      1.0000    0.89126   0.77200   0.21630   Biso      1.000     C          -0.147403           
         C101      1.0000    0.04918   0.23430   0.82424   Biso      1.000     C          0.091461  
         C102      1.0000    0.32318   0.04010   0.64626   Biso      1.000     C          -0.200948           
         C103      1.0000    0.88370   0.52730   0.89322   Biso      1.000     C          -0.005042           
         C104      1.0000    0.54918   0.26570   0.17576   Biso      1.000     C          0.091461  
         C105      1.0000    0.88547   0.75960   0.91151   Biso      1.000     C          -0.009751           
         C106      1.0000    0.91406   0.63550   0.92217   Biso      1.000     C          -0.119584           
         C107      1.0000    0.72667   0.61150   0.74599   Biso      1.000     C          0.49533   
         C108      1.0000    0.79390   0.66420   0.84317   Biso      1.000     C          0.270386  
         C109      1.0000    0.82538   0.77370   0.87109   Biso      1.000     C          -0.205241           
         C110      1.0000    0.91234   0.39190   0.90525   Biso      1.000     C          0.560047  
         C111      1.0000    0.92159   0.87760   0.93932   Biso      1.000     C          0.631965  
         C112      1.0000    0.82318   0.54010   0.85374   Biso      1.000     C          -0.200947           
         H1        1.0000    0.69750   0.96630   0.83460   Biso      1.000     H          0.127033  
         H2        1.0000    0.48300   0.80330   0.81950   Biso      1.000     H          0.106516  
         H3        1.0000    0.92410   0.97280   0.59040   Biso      1.000     H          0.104686  
         H4        1.0000    0.51700   0.19670   0.18050   Biso      1.000     H          0.106516  
         H5        1.0000    0.80250   0.46630   0.83460   Biso      1.000     H          0.127033  
         H6        1.0000    0.57590   0.52720   0.09040   Biso      1.000     H          0.104686  
         H7        1.0000    0.95390   0.37430   0.44900   Biso      1.000     H          0.136966  
         H8        1.0000    0.45390   0.12570   0.55100   Biso      1.000     H          0.136966  
         H9        1.0000    0.69340   0.35680   0.86300   Biso      1.000     H          0.136347  
         H10       1.0000    0.54610   0.87430   0.44900   Biso      1.000     H          0.136966  
         H11       1.0000    0.80210   0.77230   0.31570   Biso      1.000     H          0.306918  
         H12       1.0000    0.67660   0.46070   0.65650   Biso      1.000     H          0.138151  
         H13       1.0000    0.38360   0.79220   0.75200   Biso      1.000     H          0.134138  
         H14       1.0000    0.54610   0.12570   0.94900   Biso      1.000     H          0.136966  
         H15       1.0000    0.80660   0.85680   0.86300   Biso      1.000     H          0.136347  
         H16       1.0000    0.19340   0.85680   0.63700   Biso      1.000     H          0.136347  
         H17       1.0000    0.51700   0.80330   0.68050   Biso      1.000     H          0.106517  
         H18       1.0000    0.69340   0.64320   0.36300   Biso      1.000     H          0.136347  
         H19       1.0000    0.19750   0.46630   0.66540   Biso      1.000     H          0.127033  
         H20       1.0000    0.69790   0.72770   0.81570   Biso      1.000     H          0.306918  
         H21       1.0000    0.04610   0.62570   0.55100   Biso      1.000     H          0.136966  
         H22       1.0000    0.92410   0.02720   0.09040   Biso      1.000     H          0.104686  
         H23       1.0000    0.82340   0.96070   0.65650   Biso      1.000     H          0.138151  
         H24       1.0000    0.61640   0.79220   0.74800   Biso      1.000     H          0.134138  
         H25       1.0000    0.82340   0.03930   0.15650   Biso      1.000     H          0.13815   
         H26       1.0000    0.32340   0.46070   0.84350   Biso      1.000     H          0.138151  
         H27       1.0000    0.80210   0.22770   0.81570   Biso      1.000     H          0.306918  
         H28       1.0000    0.98300   0.30330   0.68050   Biso      1.000     H          0.106517  
         H29       1.0000    0.88360   0.70780   0.24800   Biso      1.000     H          0.134137  
         H30       1.0000    0.88360   0.29220   0.74800   Biso      1.000     H          0.134137  
         H31       1.0000    0.67660   0.53930   0.15650   Biso      1.000     H          0.13815   
         H32       1.0000    0.42410   0.47280   0.90960   Biso      1.000     H          0.104686  
         H33       1.0000    0.98300   0.69670   0.18050   Biso      1.000     H          0.106517  
         H34       1.0000    0.80250   0.53370   0.33460   Biso      1.000     H          0.127033  
         H35       1.0000    0.19340   0.14320   0.13700   Biso      1.000     H          0.136347  
         H36       1.0000    0.42410   0.52720   0.40960   Biso      1.000     H          0.104686  
         H37       1.0000    0.32340   0.53930   0.34350   Biso      1.000     H          0.13815   
         H38       1.0000    0.69790   0.27230   0.31570   Biso      1.000     H          0.306918  
         H39       1.0000    0.38360   0.20780   0.25200   Biso      1.000     H          0.134138  
         H40       1.0000    0.48300   0.19670   0.31950   Biso      1.000     H          0.106517  
         H41       1.0000    0.30210   0.27230   0.18430   Biso      1.000     H          0.306918  
         H42       1.0000    0.30210   0.72770   0.68430   Biso      1.000     H          0.306918  
         H43       1.0000    0.19790   0.22770   0.68430   Biso      1.000     H          0.306918  
         H44       1.0000    0.01700   0.30330   0.81950   Biso      1.000     H          0.106517  
         H45       1.0000    0.80660   0.14320   0.36300   Biso      1.000     H          0.136347  
         H46       1.0000    0.11640   0.29220   0.75200   Biso      1.000     H          0.134138  
         H47       1.0000    0.61640   0.20780   0.24800   Biso      1.000     H          0.134138  
         H48       1.0000    0.45390   0.87430   0.05100   Biso      1.000     H          0.136966  
         H49       1.0000    0.17660   0.96070   0.84350   Biso      1.000     H          0.13815   
         H50       1.0000    0.30250   0.03370   0.16540   Biso      1.000     H          0.127033  
         H51       1.0000    0.69750   0.03370   0.33460   Biso      1.000     H          0.127033  
         H52       1.0000    0.17660   0.03930   0.34350   Biso      1.000     H          0.138151  
         H53       1.0000    0.19790   0.77230   0.18430   Biso      1.000     H          0.306918  
         H54       1.0000    0.19750   0.53370   0.16540   Biso      1.000     H          0.127033  
         H55       1.0000    0.30660   0.64320   0.13700   Biso      1.000     H          0.136347  
         H56       1.0000    0.30660   0.35680   0.63700   Biso      1.000     H          0.136347  
         H57       1.0000    0.57590   0.47280   0.59040   Biso      1.000     H          0.104686  
         H58       1.0000    0.07590   0.02720   0.40960   Biso      1.000     H          0.104686  
         H59       1.0000    0.04610   0.37430   0.05100   Biso      1.000     H          0.136966  
         H60       1.0000    0.11640   0.70780   0.25200   Biso      1.000     H          0.134138  
         H61       1.0000    0.01700   0.69670   0.31950   Biso      1.000     H          0.106517  
         H62       1.0000    0.07590   0.97280   0.90960   Biso      1.000     H          0.104686  
         H63       1.0000    0.95390   0.62570   0.94900   Biso      1.000     H          0.136966  
         H64       1.0000    0.30250   0.96630   0.66540   Biso      1.000     H          0.127033  
         N1        1.0000    0.46302   0.64000   0.87135   Biso      1.000     N          -0.222923           
         N2        1.0000    0.96302   0.86000   0.12865   Biso      1.000     N          -0.222923           
         N3        1.0000    0.23216   0.82270   0.19674   Biso      1.000     N          -0.432986           
         N4        1.0000    0.73216   0.32270   0.30326   Biso      1.000     N          -0.432986           
         N5        1.0000    0.73216   0.67730   0.80326   Biso      1.000     N          -0.432986           
         N6        1.0000    0.53698   0.64000   0.62865   Biso      1.000     N          -0.222923           
         N7        1.0000    0.46302   0.36000   0.37135   Biso      1.000     N          -0.222923           
         N8        1.0000    0.26784   0.32270   0.19674   Biso      1.000     N          -0.432986           
         N9        1.0000    0.53698   0.36000   0.12865   Biso      1.000     N          -0.222922           
         N10       1.0000    0.23216   0.17730   0.69674   Biso      1.000     N          -0.432986           
         N11       1.0000    0.96302   0.14000   0.62865   Biso      1.000     N          -0.222922           
         N12       1.0000    0.76784   0.17730   0.80326   Biso      1.000     N          -0.432986           
         N13       1.0000    0.26784   0.67730   0.69674   Biso      1.000     N          -0.432986           
         N14       1.0000    0.76784   0.82270   0.30326   Biso      1.000     N          -0.432986           
         N15       1.0000    0.03698   0.14000   0.87135   Biso      1.000     N          -0.222923           
         N16       1.0000    0.03698   0.86000   0.37135   Biso      1.000     N          -0.222923           
         Ni1       1.0000    0.95082   0.83672   0.44857   Biso      1.000     Ni          0.860226  
         Ni2       1.0000    0.45082   0.33672   0.05143   Biso      1.000     Ni          0.860223  
         Ni3       1.0000    0.45082   0.66328   0.55143   Biso      1.000     Ni          0.860226  
         Ni4       1.0000    0.04918   0.16328   0.55143   Biso      1.000     Ni          0.860225  
         Ni5       1.0000    0.54918   0.66328   0.94857   Biso      1.000     Ni          0.860223  
         Ni6       1.0000    0.95082   0.16328   0.94857   Biso      1.000     Ni          0.860224  
         Ni7       1.0000    0.54918   0.33672   0.44857   Biso      1.000     Ni          0.860225  
         Ni8       1.0000    0.04918   0.83672   0.05143   Biso      1.000     Ni          0.860226  
         O1        1.0000    0.11750   0.29399   0.61895   Biso      1.000     O          -0.553967           
         O2        1.0000    0.22645   0.54530   0.77668   Biso      1.000     O          -0.482047           
         O3        1.0000    0.96678   0.61926   0.44064   Biso      1.000     O          -0.521266           
         O4        1.0000    0.97448   0.13889   0.47548   Biso      1.000     O          -0.620918           
         O5        1.0000    0.89834   0.01163   0.42456   Biso      1.000     O          -0.55779  
         O6        1.0000    0.03322   0.38074   0.55936   Biso      1.000     O          -0.521265           
         O7        1.0000    0.22645   0.45470   0.27668   Biso      1.000     O          -0.482046           
         O8        1.0000    0.10166   0.98837   0.57544   Biso      1.000     O          -0.55779  
         O9        1.0000    0.60166   0.51163   0.42456   Biso      1.000     O          -0.55779  
         O10       1.0000    0.52552   0.63889   0.47548   Biso      1.000     O          -0.620918           
         O11       1.0000    0.53322   0.11926   0.44064   Biso      1.000     O          -0.521266           
         O12       1.0000    0.61750   0.20601   0.38105   Biso      1.000     O          -0.553967           
         O13       1.0000    0.72645   0.95470   0.22332   Biso      1.000     O          -0.482046           
         O14       1.0000    0.39834   0.48837   0.57544   Biso      1.000     O          -0.55779  
         O15       1.0000    0.47448   0.36111   0.52452   Biso      1.000     O          -0.620918           
         O16       1.0000    0.46678   0.88074   0.55936   Biso      1.000     O          -0.521266           
         O17       1.0000    0.38250   0.79399   0.61895   Biso      1.000     O          -0.553967           
         O18       1.0000    0.27355   0.04530   0.77668   Biso      1.000     O          -0.482047           
         O19       1.0000    0.89834   0.98837   0.92456   Biso      1.000     O          -0.557789           
         O20       1.0000    0.97448   0.86111   0.97548   Biso      1.000     O          -0.620918           
         O21       1.0000    0.96678   0.38074   0.94064   Biso      1.000     O          -0.521266           
         O22       1.0000    0.88250   0.29399   0.88105   Biso      1.000     O          -0.553967           
         O23       1.0000    0.02552   0.86111   0.52452   Biso      1.000     O          -0.620918           
         O24       1.0000    0.77355   0.54530   0.72332   Biso      1.000     O          -0.482047           
         O25       1.0000    0.02552   0.13889   0.02452   Biso      1.000     O          -0.620917           
         O26       1.0000    0.03322   0.61926   0.05936   Biso      1.000     O          -0.521266           
         O27       1.0000    0.11750   0.70601   0.11895   Biso      1.000     O          -0.553967           
         O28       1.0000    0.88250   0.70601   0.38105   Biso      1.000     O          -0.553968           
         O29       1.0000    0.39834   0.51163   0.07544   Biso      1.000     O          -0.55779  
         O30       1.0000    0.47448   0.63889   0.02452   Biso      1.000     O          -0.620918           
         O31       1.0000    0.46678   0.11926   0.05936   Biso      1.000     O          -0.521265           
         O32       1.0000    0.38250   0.20601   0.11895   Biso      1.000     O          -0.553967           
         O33       1.0000    0.27355   0.95470   0.27668   Biso      1.000     O          -0.482046           
         O34       1.0000    0.60166   0.48837   0.92456   Biso      1.000     O          -0.55779  
         O35       1.0000    0.52552   0.36111   0.97548   Biso      1.000     O          -0.620917           
         O36       1.0000    0.53322   0.88074   0.94064   Biso      1.000     O          -0.521265           
         O37       1.0000    0.61750   0.79399   0.88105   Biso      1.000     O          -0.553967           
         O38       1.0000    0.72645   0.04530   0.72332   Biso      1.000     O          -0.482046           
         O39       1.0000    0.10166   0.01163   0.07544   Biso      1.000     O          -0.55779  
         O40       1.0000    0.77355   0.45470   0.22332   Biso      1.000     O          -0.482047 