
##########################################################################
#               Crystallographic Information Format file
#               Produced by PyCifRW module
#
#  This is a CIF file.  CIF has been adopted by the International
#  Union of Crystallography as the standard for data archiving and
#  transmission.
#
#  For information on this file format, follow the CIF links at
#  http://www.iucr.org
##########################################################################

data_image0

_cell_length_a                          12.766
_cell_length_b                          23.34
_cell_length_c                          14.903
_cell_angle_alpha                       90
_cell_angle_beta                        90
_cell_angle_gamma                       90
_symmetry_space_group_name_H-M          'P 1'
_symmetry_int_tables_number             1
loop_
  _symmetry_equiv_pos_as_xyz
         'x, y, z' 
loop_
  _atom_site_label
  _atom_site_occupancy
  _atom_site_fract_x
  _atom_site_fract_y
  _atom_site_fract_z
  _atom_site_thermal_displace_type
  _atom_site_B_iso_or_equiv
  _atom_site_type_symbol
  _atom_site_charge
         C1        1.0000    0.60600   0.56500   0.68520   Biso      1.000     C          0.63042   
         C2        1.0000    0.44990   0.57520   0.90130   Biso      1.000     C          -0.050142           
         C3        1.0000    0.50960   0.55100   0.83310   Biso      1.000     C          -0.065307           
         C4        1.0000    0.55110   0.58700   0.76780   Biso      1.000     C          -0.041098           
         C5        1.0000    0.53690   0.64540   0.77600   Biso      1.000     C          0.053558  
         C6        1.0000    0.11610   0.54200   0.22730   Biso      1.000     C          0.559933  
         C7        1.0000    0.86610   0.53280   0.48480   Biso      1.000     C          0.5848    
         C8        1.0000    0.03870   0.62940   0.29640   Biso      1.000     C          0.057795000000000006          
         C9        1.0000    0.04580   0.57110   0.29620   Biso      1.000     C          -0.017808           
         C10       1.0000    0.99070   0.53890   0.35860   Biso      1.000     C          -0.056599000000000003         
         C11       1.0000    0.91950   0.62600   0.41510   Biso      1.000     C          0.008875  
         C12       1.0000    0.89460   0.96320   0.46800   Biso      1.000     C          0.619604  
         C13       1.0000    0.10600   0.93500   0.18520   Biso      1.000     C          0.630429  
         C14       1.0000    0.93740   0.86560   0.40570   Biso      1.000     C          0.062049  
         C15       1.0000    0.94990   0.92480   0.40130   Biso      1.000     C          -0.050152999999999996         
         C16       1.0000    0.00960   0.94900   0.33310   Biso      1.000     C          -0.065319           
         C17       1.0000    0.05110   0.91300   0.26780   Biso      1.000     C          -0.041079000000000004         
         C18       1.0000    0.03690   0.85460   0.27600   Biso      1.000     C          0.05375800000000001           
         C19       1.0000    0.88390   0.45800   0.72730   Biso      1.000     C          0.559932  
         C20       1.0000    0.13390   0.46720   0.98480   Biso      1.000     C          0.584829  
         C21       1.0000    0.43740   0.63440   0.90570   Biso      1.000     C          0.061766999999999996          
         C22       1.0000    0.96130   0.37060   0.79640   Biso      1.000     C          0.05778099999999999           
         C23       1.0000    0.39460   0.53680   0.96800   Biso      1.000     C          0.619741  
         C24       1.0000    0.42570   0.93310   0.91770   Biso      1.000     C          -0.051740999999999995         
         C25       1.0000    0.38390   0.04200   0.22730   Biso      1.000     C          0.559922  
         C26       1.0000    0.63390   0.03280   0.48480   Biso      1.000     C          0.584738  
         C27       1.0000    0.46130   0.12940   0.29640   Biso      1.000     C          0.057758000000000004          
         C28       1.0000    0.45420   0.07110   0.29620   Biso      1.000     C          -0.017836           
         C29       1.0000    0.50930   0.03890   0.35860   Biso      1.000     C          -0.056537000000000004         
         C30       1.0000    0.57430   0.06690   0.41770   Biso      1.000     C          -0.0517   
         C31       1.0000    0.58050   0.12600   0.41510   Biso      1.000     C          0.008546  
         C32       1.0000    0.60540   0.46320   0.46800   Biso      1.000     C          0.61971   
         C33       1.0000    0.39400   0.43500   0.18520   Biso      1.000     C          0.630452  
         C34       1.0000    0.56260   0.36560   0.40570   Biso      1.000     C          0.061741  
         C35       1.0000    0.55010   0.42480   0.40130   Biso      1.000     C          -0.050134           
         C36       1.0000    0.49040   0.44900   0.33310   Biso      1.000     C          -0.065299           
         C37       1.0000    0.44890   0.41300   0.26780   Biso      1.000     C          -0.041089999999999995         
         C38       1.0000    0.46310   0.35460   0.27600   Biso      1.000     C          0.05354   
         C39       1.0000    0.61610   0.95800   0.72730   Biso      1.000     C          0.559923  
         C40       1.0000    0.36610   0.96720   0.98480   Biso      1.000     C          0.584812  
         C41       1.0000    0.53870   0.87060   0.79640   Biso      1.000     C          0.057737000000000004          
         C42       1.0000    0.54580   0.92890   0.79620   Biso      1.000     C          -0.017851           
         C43       1.0000    0.49070   0.96110   0.85860   Biso      1.000     C          -0.056563999999999996         
         C44       1.0000    0.41950   0.87400   0.91510   Biso      1.000     C          0.008715  
         C45       1.0000    0.95420   0.42890   0.79620   Biso      1.000     C          -0.017812           
         C46       1.0000    0.92570   0.56690   0.41770   Biso      1.000     C          -0.051724           
         C47       1.0000    0.07430   0.43310   0.91770   Biso      1.000     C          -0.051735           
         C48       1.0000    0.08050   0.37400   0.91510   Biso      1.000     C          0.008936  
         C49       1.0000    0.10540   0.03680   0.96800   Biso      1.000     C          0.61969   
         C50       1.0000    0.89400   0.06500   0.68520   Biso      1.000     C          0.63034   
         C51       1.0000    0.06260   0.13440   0.90570   Biso      1.000     C          0.06205599999999999           
         C52       1.0000    0.05010   0.07520   0.90130   Biso      1.000     C          -0.050152999999999996         
         C53       1.0000    0.99040   0.05100   0.83310   Biso      1.000     C          -0.06533  
         C54       1.0000    0.94890   0.08700   0.76780   Biso      1.000     C          -0.041098           
         C55       1.0000    0.96310   0.14540   0.77600   Biso      1.000     C          0.053766999999999995          
         C56       1.0000    0.00930   0.46110   0.85860   Biso      1.000     C          -0.056597           
         Cl1       1.0000    0.05780   0.26113   0.69838   Biso      1.000     Cl          -0.355721           
         Cl2       1.0000    0.99403   0.25120   0.00227   Biso      1.000     Cl          -0.352134           
         Cl3       1.0000    0.94220   0.73887   0.19838   Biso      1.000     Cl          -0.355475           
         Cl4       1.0000    0.00597   0.74880   0.50227   Biso      1.000     Cl          -0.351881           
         Cl5       1.0000    0.44220   0.76113   0.69838   Biso      1.000     Cl          -0.345453           
         Cl6       1.0000    0.50597   0.75120   0.00227   Biso      1.000     Cl          -0.341893           
         Cl7       1.0000    0.55780   0.23887   0.19838   Biso      1.000     Cl          -0.344877           
         Cl8       1.0000    0.49403   0.24880   0.50227   Biso      1.000     Cl          -0.341278           
         H1        1.0000    0.93210   0.16940   0.73360   Biso      1.000     H          0.110028  
         H2        1.0000    0.97840   0.01180   0.83120   Biso      1.000     H          0.138776  
         H3        1.0000    0.10140   0.15090   0.95160   Biso      1.000     H          0.120126  
         H4        1.0000    0.00280   0.50060   0.86040   Biso      1.000     H          0.144051  
         H5        1.0000    0.92170   0.34970   0.75610   Biso      1.000     H          0.11657200000000001           
         H6        1.0000    0.06790   0.83060   0.23360   Biso      1.000     H          0.11001400000000001           
         H7        1.0000    0.02160   0.98820   0.33120   Biso      1.000     H          0.138793  
         H8        1.0000    0.89860   0.84910   0.45160   Biso      1.000     H          0.12011600000000001           
         H9        1.0000    0.87700   0.64510   0.45600   Biso      1.000     H          0.096307  
         H10       1.0000    0.99720   0.49940   0.36040   Biso      1.000     H          0.144056  
         H11       1.0000    0.12300   0.35490   0.95600   Biso      1.000     H          0.096338  
         H12       1.0000    0.56790   0.66940   0.73360   Biso      1.000     H          0.109726  
         H13       1.0000    0.62300   0.14510   0.45600   Biso      1.000     H          0.095948  
         H14       1.0000    0.50280   0.99940   0.36040   Biso      1.000     H          0.144061  
         H15       1.0000    0.60140   0.34910   0.45160   Biso      1.000     H          0.11976600000000001           
         H16       1.0000    0.07830   0.65030   0.25610   Biso      1.000     H          0.116568  
         H17       1.0000    0.43210   0.33060   0.23360   Biso      1.000     H          0.109705  
         H18       1.0000    0.47840   0.48820   0.33120   Biso      1.000     H          0.138785  
         H19       1.0000    0.49720   0.00060   0.86040   Biso      1.000     H          0.14406   
         H20       1.0000    0.37700   0.85490   0.95600   Biso      1.000     H          0.096026  
         H21       1.0000    0.42170   0.15030   0.25610   Biso      1.000     H          0.11634100000000001           
         H22       1.0000    0.39860   0.65090   0.95160   Biso      1.000     H          0.11979200000000001           
         H23       1.0000    0.52160   0.51180   0.83120   Biso      1.000     H          0.138782  
         H24       1.0000    0.57830   0.84970   0.75610   Biso      1.000     H          0.11635899999999999           
         N1        1.0000    0.52430   0.15775   0.35370   Biso      1.000     N          -0.073418           
         N2        1.0000    0.51930   0.33128   0.34290   Biso      1.000     N          -0.077589           
         N3        1.0000    0.47570   0.84225   0.85370   Biso      1.000     N          -0.073257           
         N4        1.0000    0.48070   0.66872   0.84290   Biso      1.000     N          -0.077431           
         N5        1.0000    0.98070   0.83128   0.34290   Biso      1.000     N          -0.075098           
         N6        1.0000    0.97570   0.65775   0.35370   Biso      1.000     N          -0.070594           
         N7        1.0000    0.01930   0.16872   0.84290   Biso      1.000     N          -0.075053           
         N8        1.0000    0.02430   0.34225   0.85370   Biso      1.000     N          -0.070546           
         O1        1.0000    0.83910   0.93819   0.52540   Biso      1.000     O          -0.501466           
         O2        1.0000    0.79230   0.55770   0.52990   Biso      1.000     O          -0.578346           
         O3        1.0000    0.88780   0.48210   0.49760   Biso      1.000     O          -0.45418400000000003          
         O4        1.0000    0.10870   0.48960   0.21520   Biso      1.000     O          -0.542706           
         O5        1.0000    0.17710   0.57470   0.18290   Biso      1.000     O          -0.5421090000000001           
         O6        1.0000    0.60630   0.59793   0.61850   Biso      1.000     O          -0.552154           
         O7        1.0000    0.64910   0.51622   0.69190   Biso      1.000     O          -0.519767           
         O8        1.0000    0.33910   0.56181   0.02540   Biso      1.000     O          -0.501504           
         O9        1.0000    0.29230   0.94230   0.02990   Biso      1.000     O          -0.578045           
         O10       1.0000    0.38780   0.01790   0.99760   Biso      1.000     O          -0.45419  
         O11       1.0000    0.60870   0.01040   0.71520   Biso      1.000     O          -0.542702           
         O12       1.0000    0.40720   0.48390   0.95780   Biso      1.000     O          -0.589867           
         O13       1.0000    0.67710   0.92530   0.68290   Biso      1.000     O          -0.542115           
         O14       1.0000    0.39370   0.40207   0.11850   Biso      1.000     O          -0.5525979999999999           
         O15       1.0000    0.35090   0.48378   0.19190   Biso      1.000     O          -0.5197930000000001           
         O16       1.0000    0.59280   0.51610   0.45780   Biso      1.000     O          -0.589508           
         O17       1.0000    0.66090   0.43819   0.52540   Biso      1.000     O          -0.501486           
         O18       1.0000    0.70770   0.05770   0.52990   Biso      1.000     O          -0.576693           
         O19       1.0000    0.61220   0.98210   0.49760   Biso      1.000     O          -0.45421999999999996          
         O20       1.0000    0.90720   0.01610   0.45780   Biso      1.000     O          -0.5882649999999999           
         O21       1.0000    0.14910   0.98378   0.19190   Biso      1.000     O          -0.5197649999999999           
         O22       1.0000    0.32290   0.07470   0.18290   Biso      1.000     O          -0.5421020000000001           
         O23       1.0000    0.82290   0.42530   0.68290   Biso      1.000     O          -0.542114           
         O24       1.0000    0.89130   0.51040   0.71520   Biso      1.000     O          -0.542706           
         O25       1.0000    0.11220   0.51790   0.99760   Biso      1.000     O          -0.45417700000000005          
         O26       1.0000    0.20770   0.44230   0.02990   Biso      1.000     O          -0.5788220000000001           
         O27       1.0000    0.16090   0.06181   0.02540   Biso      1.000     O          -0.501513           
         O28       1.0000    0.09280   0.98390   0.95780   Biso      1.000     O          -0.589316           
         O29       1.0000    0.85090   0.01622   0.69190   Biso      1.000     O          -0.519688           
         O30       1.0000    0.89370   0.09793   0.61850   Biso      1.000     O          -0.550646           
         O31       1.0000    0.39130   0.98960   0.21520   Biso      1.000     O          -0.5426979999999999           
         O32       1.0000    0.10630   0.90207   0.11850   Biso      1.000     O          -0.551952           
         Pt1       1.0000    0.02666   0.25589   0.85073   Biso      1.000     Pt          0.304253  
         Pt2       1.0000    0.47334   0.75589   0.85073   Biso      1.000     Pt          0.290692  
         Pt3       1.0000    0.52666   0.24411   0.35073   Biso      1.000     Pt          0.290136  
         Pt4       1.0000    0.97334   0.74411   0.35073   Biso      1.000     Pt          0.303844  
         Zn1       1.0000    0.24746   0.51532   0.10580   Biso      1.000     Zn          0.9355030000000001  
         Zn2       1.0000    0.34944   0.40137   0.98828   Biso      1.000     Zn          0.87459   
         Zn3       1.0000    0.75254   0.48468   0.60580   Biso      1.000     Zn          0.935516  
         Zn4       1.0000    0.65056   0.59863   0.48828   Biso      1.000     Zn          0.8734129999999999  
         Zn5       1.0000    0.25254   0.01532   0.10580   Biso      1.000     Zn          0.9355370000000001  
         Zn6       1.0000    0.15056   0.90137   0.98828   Biso      1.000     Zn          0.872714  
         Zn7       1.0000    0.74746   0.98468   0.60580   Biso      1.000     Zn          0.935581  
         Zn8       1.0000    0.84944   0.09863   0.48828   Biso      1.000     Zn          0.8690950000000001 