
##########################################################################
#               Crystallographic Information Format file
#               Produced by PyCifRW module
#
#  This is a CIF file.  CIF has been adopted by the International
#  Union of Crystallography as the standard for data archiving and
#  transmission.
#
#  For information on this file format, follow the CIF links at
#  http://www.iucr.org
##########################################################################

data_image0

_cell_length_a                          11.358
_cell_length_b                          12.366
_cell_length_c                          12.619
_cell_angle_alpha                       90
_cell_angle_beta                        90
_cell_angle_gamma                       104.05
_symmetry_space_group_name_H-M          'P 1'
_symmetry_int_tables_number             1
loop_
  _symmetry_equiv_pos_as_xyz
         'x, y, z' 
loop_
  _atom_site_label
  _atom_site_occupancy
  _atom_site_fract_x
  _atom_site_fract_y
  _atom_site_fract_z
  _atom_site_thermal_displace_type
  _atom_site_B_iso_or_equiv
  _atom_site_type_symbol
  _atom_site_charge
         C1        1.0000    0.64490   0.89980   0.85720   Biso      1.000     C          -0.10827300000000001          
         C2        1.0000    0.25970   0.27530   0.90620   Biso      1.000     C          -0.020747           
         C3        1.0000    0.61820   0.23410   0.36150   Biso      1.000     C          -0.057337           
         C4        1.0000    0.57990   0.95590   0.24770   Biso      1.000     C          -0.06127899999999999          
         C5        1.0000    0.88180   0.76590   0.86150   Biso      1.000     C          -0.057337           
         C6        1.0000    0.24030   0.72470   0.40620   Biso      1.000     C          -0.020747           
         C7        1.0000    0.06630   0.51380   0.75920   Biso      1.000     C          -0.06766  
         C8        1.0000    0.14490   0.89980   0.64280   Biso      1.000     C          -0.10827300000000001          
         C9        1.0000    0.92010   0.04410   0.74770   Biso      1.000     C          -0.06127899999999999          
         C10       1.0000    0.38180   0.76590   0.63850   Biso      1.000     C          -0.057337           
         C11       1.0000    0.74030   0.72470   0.09380   Biso      1.000     C          -0.020747           
         C12       1.0000    0.56630   0.51380   0.74080   Biso      1.000     C          -0.06766  
         C13       1.0000    0.42010   0.04410   0.75230   Biso      1.000     C          -0.06127899999999999          
         C14       1.0000    0.11820   0.23410   0.13850   Biso      1.000     C          -0.057337           
         C15       1.0000    0.75970   0.27530   0.59380   Biso      1.000     C          -0.020747           
         C16       1.0000    0.93370   0.48620   0.24080   Biso      1.000     C          -0.06766  
         C17       1.0000    0.85510   0.10020   0.35720   Biso      1.000     C          -0.10827300000000001          
         C18       1.0000    0.07990   0.95590   0.25230   Biso      1.000     C          -0.06127899999999999          
         C19       1.0000    0.43370   0.48620   0.25920   Biso      1.000     C          -0.06766  
         C20       1.0000    0.35510   0.10020   0.14280   Biso      1.000     C          -0.10827300000000001          
         Cd1       1.0000    0.51550   0.05598   0.37133   Biso      1.000     Cd          0.730811  
         Cd2       1.0000    0.98450   0.94402   0.87133   Biso      1.000     Cd          0.730811  
         Cd3       1.0000    0.30882   0.12996   0.97674   Biso      1.000     Cd          0.7124119999999999  
         Cd4       1.0000    0.23600   0.48972   0.25599   Biso      1.000     Cd          0.9255329999999999  
         Cd5       1.0000    0.80882   0.12996   0.52326   Biso      1.000     Cd          0.7124119999999999  
         Cd6       1.0000    0.01550   0.05598   0.12867   Biso      1.000     Cd          0.730811  
         Cd7       1.0000    0.26400   0.51028   0.75599   Biso      1.000     Cd          0.925532  
         Cd8       1.0000    0.69118   0.87004   0.02326   Biso      1.000     Cd          0.712411  
         Cd9       1.0000    0.73600   0.48972   0.24401   Biso      1.000     Cd          0.925532  
         Cd10      1.0000    0.48450   0.94402   0.62867   Biso      1.000     Cd          0.730811  
         Cd11      1.0000    0.76400   0.51028   0.74401   Biso      1.000     Cd          0.925532  
         Cd12      1.0000    0.19118   0.87004   0.47674   Biso      1.000     Cd          0.712411  
         H1        1.0000    0.14860   0.90900   0.01280   Biso      1.000     H          0.312281  
         H2        1.0000    0.35140   0.09100   0.51280   Biso      1.000     H          0.312281  
         H3        1.0000    0.64860   0.90900   0.48720   Biso      1.000     H          0.312281  
         H4        1.0000    0.85140   0.09100   0.98720   Biso      1.000     H          0.312281  
         N1        1.0000    0.11770   0.93280   0.33000   Biso      1.000     N          -0.318984           
         N2        1.0000    0.88320   0.08740   0.27290   Biso      1.000     N          -0.30243200000000003          
         N3        1.0000    0.03630   0.49000   0.24270   Biso      1.000     N          -0.295277           
         N4        1.0000    0.74210   0.35120   0.63700   Biso      1.000     N          -0.368286           
         N5        1.0000    0.17240   0.32280   0.15710   Biso      1.000     N          -0.37175  
         N6        1.0000    0.38230   0.06720   0.83000   Biso      1.000     N          -0.318984           
         N7        1.0000    0.61680   0.91260   0.77290   Biso      1.000     N          -0.30243200000000003          
         N8        1.0000    0.46370   0.51000   0.74270   Biso      1.000     N          -0.295277           
         N9        1.0000    0.75790   0.64880   0.13700   Biso      1.000     N          -0.368287           
         N10       1.0000    0.32760   0.67720   0.65710   Biso      1.000     N          -0.371749           
         N11       1.0000    0.61770   0.93280   0.17000   Biso      1.000     N          -0.318984           
         N12       1.0000    0.11680   0.91260   0.72710   Biso      1.000     N          -0.30243200000000003          
         N13       1.0000    0.96370   0.51000   0.75730   Biso      1.000     N          -0.295277           
         N14       1.0000    0.25790   0.64880   0.36300   Biso      1.000     N          -0.368287           
         N15       1.0000    0.82760   0.67720   0.84290   Biso      1.000     N          -0.371749           
         N16       1.0000    0.38320   0.08740   0.22710   Biso      1.000     N          -0.30243200000000003          
         N17       1.0000    0.53630   0.49000   0.25730   Biso      1.000     N          -0.295277           
         N18       1.0000    0.24210   0.35120   0.86300   Biso      1.000     N          -0.368287           
         N19       1.0000    0.67240   0.32280   0.34290   Biso      1.000     N          -0.371749           
         N20       1.0000    0.88230   0.06720   0.67000   Biso      1.000     N          -0.318984           
         O1        1.0000    0.37180   0.00300   0.48880   Biso      1.000     O          -0.709011           
         O2        1.0000    0.62820   0.99700   0.51120   Biso      1.000     O          -0.709011           
         O3        1.0000    0.87180   0.00300   0.01120   Biso      1.000     O          -0.709011           
         O4        1.0000    0.12820   0.99700   0.98880   Biso      1.000     O          -0.709011 