
##########################################################################
#               Crystallographic Information Format file
#               Produced by PyCifRW module
#
#  This is a CIF file.  CIF has been adopted by the International
#  Union of Crystallography as the standard for data archiving and
#  transmission.
#
#  For information on this file format, follow the CIF links at
#  http://www.iucr.org
##########################################################################

data_image0

_cell_length_a                          8.264
_cell_length_b                          18.4399
_cell_length_c                          19.18
_cell_angle_alpha                       110.063
_cell_angle_beta                        90
_cell_angle_gamma                       102.949
_symmetry_space_group_name_H-M          'P 1'
_symmetry_int_tables_number             1
loop_
  _symmetry_equiv_pos_as_xyz
         'x, y, z' 
loop_
  _atom_site_label
  _atom_site_occupancy
  _atom_site_fract_x
  _atom_site_fract_y
  _atom_site_fract_z
  _atom_site_thermal_displace_type
  _atom_site_B_iso_or_equiv
  _atom_site_type_symbol
  _atom_site_charge
         C1        1.0000    0.08072   0.33404   0.13670   Biso      1.000     C          0.620501  
         C2        1.0000    0.97307   0.15614   0.28150   Biso      1.000     C          0.091953  
         C3        1.0000    0.40257   0.23694   0.23870   Biso      1.000     C          0.114899  
         C4        1.0000    0.24126   0.18192   0.23600   Biso      1.000     C          0.117318  
         C5        1.0000    0.21480   0.14280   0.51270   Biso      1.000     C          0.290697  
         C6        1.0000    0.05244   0.05408   0.19530   Biso      1.000     C          0.093781  
         C7        1.0000    0.34760   0.14680   0.40460   Biso      1.000     C          -0.087606           
         C8        1.0000    0.77965   0.70070   0.89950   Biso      1.000     C          -0.135198           
         C9        1.0000    0.20555   0.91610   0.98590   Biso      1.000     C          -0.22831  
         C10       1.0000    0.48840   0.93380   0.14780   Biso      1.000     C          0.606883  
         C11       1.0000    0.16563   0.76306   0.26130   Biso      1.000     C          0.113871  
         C12       1.0000    0.07895   0.29930   0.60050   Biso      1.000     C          -0.132484           
         C13       1.0000    0.88119   0.79198   0.71910   Biso      1.000     C          -0.16652  
         C14       1.0000    0.79445   0.08390   0.01410   Biso      1.000     C          -0.228309           
         C15       1.0000    0.75874   0.81808   0.76400   Biso      1.000     C          0.117319  
         C16       1.0000    0.08921   0.20802   0.78090   Biso      1.000     C          -0.167248           
         C17       1.0000    0.79635   0.89650   0.80760   Biso      1.000     C          -0.157076           
         C18       1.0000    0.18307   0.15614   0.78150   Biso      1.000     C          0.093686  
         C19       1.0000    0.69353   0.26306   0.22120   Biso      1.000     C          0.095814  
         C20       1.0000    0.83437   0.23694   0.73870   Biso      1.000     C          0.113871  
         C21       1.0000    0.94066   0.18192   0.73600   Biso      1.000     C          0.119495  
         C22       1.0000    0.44540   0.93380   0.64780   Biso      1.000     C          0.602922  
         C23       1.0000    0.33731   0.79042   0.28650   Biso      1.000     C          -0.14172  
         C24       1.0000    0.41316   0.43632   0.13740   Biso      1.000     C          0.582154  
         C25       1.0000    0.20865   0.63090   0.22540   Biso      1.000     C          0.12115   
         C26       1.0000    0.62099   0.65218   0.89830   Biso      1.000     C          -0.034405           
         C27       1.0000    0.32250   0.18320   0.03470   Biso      1.000     C          -0.212001           
         C28       1.0000    0.97684   0.56368   0.36260   Biso      1.000     C          0.584052  
         C29       1.0000    0.05934   0.81808   0.26400   Biso      1.000     C          0.119495  
         C30       1.0000    0.49236   0.68752   0.92800   Biso      1.000     C          -0.11836  
         C31       1.0000    0.51160   0.06620   0.85220   Biso      1.000     C          0.606883  
         C32       1.0000    0.57700   0.68100   0.73220   Biso      1.000     C          -0.168889           
         C33       1.0000    0.10015   0.89650   0.30760   Biso      1.000     C          -0.159366           
         C34       1.0000    0.39330   0.05640   0.45980   Biso      1.000     C          -0.1072   
         C35       1.0000    0.66310   0.05640   0.95980   Biso      1.000     C          -0.104065           
         C36       1.0000    0.42300   0.31900   0.26780   Biso      1.000     C          -0.168889           
         C37       1.0000    0.43047   0.73694   0.27880   Biso      1.000     C          0.090156  
         C38       1.0000    0.78520   0.85720   0.48730   Biso      1.000     C          0.290696  
         C39       1.0000    0.42225   0.63090   0.72540   Biso      1.000     C          0.120214  
         C40       1.0000    0.58684   0.56368   0.86260   Biso      1.000     C          0.582154  
         C41       1.0000    0.97911   0.78062   0.43320   Biso      1.000     C          0.222681  
         C42       1.0000    0.13930   0.81680   0.46530   Biso      1.000     C          -0.21147  
         C43       1.0000    0.10400   0.68100   0.23220   Biso      1.000     C          -0.168076           
         C44       1.0000    0.65240   0.85320   0.59540   Biso      1.000     C          -0.087606           
         C45       1.0000    0.99836   0.94592   0.30470   Biso      1.000     C          0.094132  
         C46       1.0000    0.22035   0.29930   0.10050   Biso      1.000     C          -0.135198           
         C47       1.0000    0.30647   0.73694   0.77880   Biso      1.000     C          0.095814  
         C48       1.0000    0.03119   0.65218   0.39830   Biso      1.000     C          -0.034158           
         C49       1.0000    0.11881   0.20802   0.28090   Biso      1.000     C          -0.166509           
         C50       1.0000    0.55460   0.06620   0.35220   Biso      1.000     C          0.602922  
         C51       1.0000    0.91079   0.79198   0.21910   Biso      1.000     C          -0.167248           
         C52       1.0000    0.50764   0.31248   0.07200   Biso      1.000     C          -0.11836  
         C53       1.0000    0.94756   0.94592   0.80470   Biso      1.000     C          0.093781  
         C54       1.0000    0.06834   0.82708   0.04330   Biso      1.000     C          -0.226258           
         C55       1.0000    0.80151   0.78062   0.93320   Biso      1.000     C          0.225698  
         C56       1.0000    0.42857   0.08934   0.40670   Biso      1.000     C          -0.061042           
         C57       1.0000    0.28945   0.08390   0.51410   Biso      1.000     C          -0.22661  
         C58       1.0000    0.92800   0.14280   0.01270   Biso      1.000     C          0.289143  
         C59       1.0000    0.60670   0.94360   0.54020   Biso      1.000     C          -0.1072   
         C60       1.0000    0.54689   0.20958   0.21350   Biso      1.000     C          -0.145971           
         C61       1.0000    0.20365   0.10350   0.19240   Biso      1.000     C          -0.157076           
         C62       1.0000    0.86070   0.18320   0.53470   Biso      1.000     C          -0.211473           
         C63       1.0000    0.89600   0.31900   0.76780   Biso      1.000     C          -0.168077           
         C64       1.0000    0.02693   0.84386   0.71850   Biso      1.000     C          0.091965  
         C65       1.0000    0.02089   0.21938   0.56680   Biso      1.000     C          0.222689  
         C66       1.0000    0.45311   0.79042   0.78650   Biso      1.000     C          -0.145971           
         C67       1.0000    0.81693   0.84386   0.21850   Biso      1.000     C          0.093686  
         C68       1.0000    0.66077   0.08934   0.90670   Biso      1.000     C          -0.064376           
         C69       1.0000    0.96881   0.34782   0.60170   Biso      1.000     C          -0.034157           
         C70       1.0000    0.57775   0.36910   0.27460   Biso      1.000     C          0.120214  
         C71       1.0000    0.79135   0.36910   0.77460   Biso      1.000     C          0.121151  
         C72       1.0000    0.75180   0.23240   0.53760   Biso      1.000     C          -0.063772           
         C73       1.0000    0.02316   0.43632   0.63740   Biso      1.000     C          0.584052  
         C74       1.0000    0.00164   0.05408   0.69530   Biso      1.000     C          0.09413   
         C75       1.0000    0.37901   0.34782   0.10170   Biso      1.000     C          -0.034404           
         C76       1.0000    0.59743   0.76306   0.76130   Biso      1.000     C          0.114899  
         C77       1.0000    0.93166   0.17292   0.95670   Biso      1.000     C          -0.226252           
         C78       1.0000    0.25332   0.33404   0.63670   Biso      1.000     C          0.621636  
         C79       1.0000    0.67750   0.81680   0.96530   Biso      1.000     C          -0.211998           
         C80       1.0000    0.91928   0.66596   0.86330   Biso      1.000     C          0.620501  
         C81       1.0000    0.33690   0.94360   0.04020   Biso      1.000     C          -0.104065           
         C82       1.0000    0.89985   0.10350   0.69240   Biso      1.000     C          -0.159364           
         C83       1.0000    0.33923   0.91066   0.09330   Biso      1.000     C          -0.064376           
         C84       1.0000    0.74668   0.66596   0.36330   Biso      1.000     C          0.621636  
         C85       1.0000    0.51940   0.76760   0.96240   Biso      1.000     C          -0.064647           
         C86       1.0000    0.66269   0.20958   0.71350   Biso      1.000     C          -0.14172  
         C87       1.0000    0.80484   0.31248   0.57200   Biso      1.000     C          -0.121497           
         C88       1.0000    0.24820   0.76760   0.46240   Biso      1.000     C          -0.063773           
         C89       1.0000    0.92105   0.70070   0.39950   Biso      1.000     C          -0.132476           
         C90       1.0000    0.56953   0.26306   0.72120   Biso      1.000     C          0.090156  
         C91       1.0000    0.75874   0.82708   0.54330   Biso      1.000     C          -0.2273   
         C92       1.0000    0.71055   0.91610   0.48590   Biso      1.000     C          -0.22661  
         C93       1.0000    0.07200   0.85720   0.98730   Biso      1.000     C          0.289149  
         C94       1.0000    0.19516   0.68752   0.42800   Biso      1.000     C          -0.121497           
         C95       1.0000    0.19849   0.21938   0.06680   Biso      1.000     C          0.2257    
         C96       1.0000    0.79920   0.14680   0.90460   Biso      1.000     C          -0.08611  
         C97       1.0000    0.48060   0.23240   0.03760   Biso      1.000     C          -0.064647           
         C98       1.0000    0.57143   0.91066   0.59330   Biso      1.000     C          -0.061042           
         C99       1.0000    0.20080   0.85320   0.09540   Biso      1.000     C          -0.086109           
         C100      1.0000    0.24126   0.17292   0.45670   Biso      1.000     C          -0.2273   
         H1        1.0000    0.35680   0.78980   0.48400   Biso      1.000     H          0.111027  
         H2        1.0000    0.45940   0.84460   0.80820   Biso      1.000     H          0.142402  
         H3        1.0000    0.19710   0.91700   0.33950   Biso      1.000     H          0.12851   
         H4        1.0000    0.80200   0.16800   0.86690   Biso      1.000     H          0.102633  
         H5        1.0000    0.63400   0.83200   0.63310   Biso      1.000     H          0.102789  
         H6        1.0000    0.28170   0.17520   0.81220   Biso      1.000     H          0.100562  
         H7        1.0000    0.83530   0.42360   0.79540   Biso      1.000     H          0.110965  
         H8        1.0000    0.86350   0.73860   0.68930   Biso      1.000     H          0.130475  
         H9        1.0000    0.41170   0.57640   0.70460   Biso      1.000     H          0.111024  
         H10       1.0000    0.27000   0.65580   0.42430   Biso      1.000     H          0.132436  
         H11       1.0000    0.28010   0.08300   0.16050   Biso      1.000     H          0.128469  
         H12       1.0000    0.78650   0.24400   0.20390   Biso      1.000     H          0.097844  
         H13       1.0000    0.97600   0.78900   0.04590   Biso      1.000     H          0.126011  
         H14       1.0000    0.58830   0.42360   0.29540   Biso      1.000     H          0.111025  
         H15       1.0000    0.02910   0.00100   0.16440   Biso      1.000     H          0.091784  
         H16       1.0000    0.38580   0.65580   0.92430   Biso      1.000     H          0.130864  
         H17       1.0000    0.72990   0.93760   0.44850   Biso      1.000     H          0.13376   
         H18       1.0000    0.97090   0.99900   0.83560   Biso      1.000     H          0.091784  
         H19       1.0000    0.56700   0.21020   0.01600   Biso      1.000     H          0.111438  
         H20       1.0000    0.00890   0.34020   0.78270   Biso      1.000     H          0.134681  
         H21       1.0000    0.19800   0.83200   0.13310   Biso      1.000     H          0.102633  
         H22       1.0000    0.45750   0.24400   0.70390   Biso      1.000     H          0.097867  
         H23       1.0000    0.61480   0.15540   0.69180   Biso      1.000     H          0.141453  
         H24       1.0000    0.36600   0.16800   0.36690   Biso      1.000     H          0.102789  
         H25       1.0000    0.02810   0.99900   0.33560   Biso      1.000     H          0.093249  
         H26       1.0000    0.18700   0.21100   0.45410   Biso      1.000     H          0.126473  
         H27       1.0000    0.54060   0.15540   0.19180   Biso      1.000     H          0.142402  
         H28       1.0000    0.43300   0.78980   0.98400   Biso      1.000     H          0.111438  
         H29       1.0000    0.73000   0.34420   0.57570   Biso      1.000     H          0.132436  
         H30       1.0000    0.20770   0.93760   0.94850   Biso      1.000     H          0.134665  
         H31       1.0000    0.27010   0.06240   0.55150   Biso      1.000     H          0.13376   
         H32       1.0000    0.64320   0.21020   0.51600   Biso      1.000     H          0.111027  
         H33       1.0000    0.61420   0.34420   0.07570   Biso      1.000     H          0.130864  
         H34       1.0000    0.38520   0.84460   0.30820   Biso      1.000     H          0.141453  
         H35       1.0000    0.13650   0.26140   0.31070   Biso      1.000     H          0.130475  
         H36       1.0000    0.10650   0.82480   0.68780   Biso      1.000     H          0.10237   
         H37       1.0000    0.42480   0.98520   0.04030   Biso      1.000     H          0.108695  
         H38       1.0000    0.66870   0.65980   0.71730   Biso      1.000     H          0.136187  
         H39       1.0000    0.56040   0.98520   0.54030   Biso      1.000     H          0.109868  
         H40       1.0000    0.57520   0.01480   0.95970   Biso      1.000     H          0.108695  
         H41       1.0000    0.33130   0.34020   0.28270   Biso      1.000     H          0.136187  
         H42       1.0000    0.71990   0.91700   0.83950   Biso      1.000     H          0.128469  
         H43       1.0000    0.17390   0.87180   0.48800   Biso      1.000     H          0.139008  
         H44       1.0000    0.81300   0.78900   0.54590   Biso      1.000     H          0.126473  
         H45       1.0000    0.54250   0.75600   0.29610   Biso      1.000     H          0.097867  
         H46       1.0000    0.89350   0.17520   0.31220   Biso      1.000     H          0.102371  
         H47       1.0000    0.69790   0.87180   0.98800   Biso      1.000     H          0.138955  
         H48       1.0000    0.79230   0.06240   0.05150   Biso      1.000     H          0.134665  
         H49       1.0000    0.82610   0.12820   0.51200   Biso      1.000     H          0.139008  
         H50       1.0000    0.80290   0.08300   0.66050   Biso      1.000     H          0.12851   
         H51       1.0000    0.12490   0.26140   0.81070   Biso      1.000     H          0.130641  
         H52       1.0000    0.97190   0.00100   0.66440   Biso      1.000     H          0.093249  
         H53       1.0000    0.02400   0.21100   0.95410   Biso      1.000     H          0.126011  
         H54       1.0000    0.30210   0.12820   0.01200   Biso      1.000     H          0.138955  
         H55       1.0000    0.71830   0.82480   0.18780   Biso      1.000     H          0.100562  
         H56       1.0000    0.21350   0.75600   0.79610   Biso      1.000     H          0.097844  
         H57       1.0000    0.16470   0.57640   0.20460   Biso      1.000     H          0.110965  
         H58       1.0000    0.87510   0.73860   0.18930   Biso      1.000     H          0.130641  
         H59       1.0000    0.43960   0.01480   0.45970   Biso      1.000     H          0.109868  
         H60       1.0000    0.99110   0.65980   0.21730   Biso      1.000     H          0.13468   
         N1        1.0000    0.71265   0.34230   0.25250   Biso      1.000     N          -0.242382           
         N2        1.0000    0.05991   0.92042   0.75980   Biso      1.000     N          -0.20946  
         N3        1.0000    0.86051   0.92042   0.25980   Biso      1.000     N          -0.210105           
         N4        1.0000    0.13949   0.07958   0.74020   Biso      1.000     N          -0.210105           
         N5        1.0000    0.62965   0.34230   0.75250   Biso      1.000     N          -0.240451           
         N6        1.0000    0.94009   0.07958   0.24020   Biso      1.000     N          -0.209459           
         N7        1.0000    0.37035   0.65770   0.24750   Biso      1.000     N          -0.240451           
         N8        1.0000    0.28735   0.65770   0.74750   Biso      1.000     N          -0.242382           
         O1        1.0000    0.59960   0.98860   0.15110   Biso      1.000     O          -0.561958           
         O2        1.0000    0.44294   0.52628   0.82980   Biso      1.000     O          -0.551937           
         O3        1.0000    0.38900   0.98860   0.65110   Biso      1.000     O          -0.559705           
         O4        1.0000    0.08334   0.52628   0.32980   Biso      1.000     O          -0.551742           
         O5        1.0000    0.12192   0.16944   0.57170   Biso      1.000     O          -0.243721           
         O6        1.0000    0.95248   0.83056   0.92830   Biso      1.000     O          -0.245201           
         O7        1.0000    0.96418   0.33456   0.09650   Biso      1.000     O          -0.544651           
         O8        1.0000    0.26637   0.35834   0.70720   Biso      1.000     O          -0.592412           
         O9        1.0000    0.09197   0.35834   0.20720   Biso      1.000     O          -0.592218           
         O10       1.0000    0.49480   0.89700   0.18950   Biso      1.000     O          -0.599797           
         O11       1.0000    0.61100   0.01140   0.34890   Biso      1.000     O          -0.559705           
         O12       1.0000    0.73363   0.64166   0.29280   Biso      1.000     O          -0.592413           
         O13       1.0000    0.04752   0.16944   0.07170   Biso      1.000     O          -0.245201           
         O14       1.0000    0.87808   0.83056   0.42830   Biso      1.000     O          -0.24372  
         O15       1.0000    0.59780   0.10300   0.31050   Biso      1.000     O          -0.599395           
         O16       1.0000    0.50520   0.10300   0.81050   Biso      1.000     O          -0.599797           
         O17       1.0000    0.55706   0.47372   0.17020   Biso      1.000     O          -0.551937           
         O18       1.0000    0.62962   0.66544   0.40350   Biso      1.000     O          -0.546235           
         O19       1.0000    0.40220   0.89700   0.68950   Biso      1.000     O          -0.599395           
         O20       1.0000    0.91666   0.47372   0.67020   Biso      1.000     O          -0.551742           
         O21       1.0000    0.90803   0.64166   0.79280   Biso      1.000     O          -0.592218           
         O22       1.0000    0.69808   0.52956   0.86320   Biso      1.000     O          -0.546626           
         O23       1.0000    0.37038   0.33456   0.59650   Biso      1.000     O          -0.546235           
         O24       1.0000    0.16852   0.47044   0.63680   Biso      1.000     O          -0.548849           
         O25       1.0000    0.83148   0.52956   0.36320   Biso      1.000     O          -0.548849           
         O26       1.0000    0.30192   0.47044   0.13680   Biso      1.000     O          -0.546626           
         O27       1.0000    0.03582   0.66544   0.90350   Biso      1.000     O          -0.544651           
         O28       1.0000    0.40040   0.01140   0.84890   Biso      1.000     O          -0.561958           
         Zn1       1.0000    0.94393   0.41708   0.27248   Biso      1.000     Zn          0.87985   
         Zn2       1.0000    0.05607   0.58292   0.72752   Biso      1.000     Zn          0.87985   
         Zn3       1.0000    0.72498   0.00000   0.25000   Biso      1.000     Zn          0.748574  
         Zn4       1.0000    0.47315   0.41708   0.77248   Biso      1.000     Zn          0.880187  
         Zn5       1.0000    0.27502   0.00000   0.75000   Biso      1.000     Zn          0.748574  
         Zn6       1.0000    0.52685   0.58292   0.22752   Biso      1.000     Zn          0.880186 