
##########################################################################
#               Crystallographic Information Format file
#               Produced by PyCifRW module
#
#  This is a CIF file.  CIF has been adopted by the International
#  Union of Crystallography as the standard for data archiving and
#  transmission.
#
#  For information on this file format, follow the CIF links at
#  http://www.iucr.org
##########################################################################

data_image0

_cell_length_a                          11.6525
_cell_length_b                          18.3554
_cell_length_c                          18.3554
_cell_angle_alpha                       84.2176
_cell_angle_beta                        71.4934
_cell_angle_gamma                       71.4935
_symmetry_space_group_name_H-M          'P 1'
_symmetry_int_tables_number             1
loop_
  _symmetry_equiv_pos_as_xyz
         'x, y, z' 
loop_
  _atom_site_label
  _atom_site_occupancy
  _atom_site_fract_x
  _atom_site_fract_y
  _atom_site_fract_z
  _atom_site_thermal_displace_type
  _atom_site_B_iso_or_equiv
  _atom_site_type_symbol
  _atom_site_charge
         C1        1.0000    0.77905   0.17546   0.35684   Biso      1.000     C          -0.077226           
         C2        1.0000    0.24803   0.62170   0.54064   Biso      1.000     C          0.155096  
         C3        1.0000    0.24227   0.60489   0.61797   Biso      1.000     C          -0.177652           
         C4        1.0000    0.13589   0.64316   0.67546   Biso      1.000     C          -0.076545           
         C5        1.0000    0.03748   0.69992   0.65612   Biso      1.000     C          -0.08164199999999999          
         C6        1.0000    0.04081   0.71714   0.58144   Biso      1.000     C          -0.178102           
         C7        1.0000    0.14563   0.67712   0.52222   Biso      1.000     C          0.174376  
         C8        1.0000    0.87276   0.89855   0.08913   Biso      1.000     C          0.359068  
         C9        1.0000    0.25047   0.65764   0.39182   Biso      1.000     C          0.377783  
         C10       1.0000    0.73740   0.15612   0.30008   Biso      1.000     C          -0.080229           
         C11       1.0000    0.84716   0.11797   0.39511   Biso      1.000     C          -0.176499           
         C12       1.0000    0.86973   0.04064   0.37830   Biso      1.000     C          0.15578499999999998           
         C13       1.0000    0.63956   0.39855   0.58913   Biso      1.000     C          0.35789099999999996           
         C14       1.0000    0.74953   0.34236   0.60818   Biso      1.000     C          0.377772  
         C15       1.0000    0.85437   0.32288   0.47778   Biso      1.000     C          0.17438299999999998           
         C16       1.0000    0.36044   0.60145   0.41087   Biso      1.000     C          0.35789   
         C17       1.0000    0.95919   0.28286   0.41856   Biso      1.000     C          -0.178111           
         C18       1.0000    0.79993   0.84236   0.10818   Biso      1.000     C          0.374291  
         C19       1.0000    0.83939   0.78286   0.91856   Biso      1.000     C          -0.179215           
         C20       1.0000    0.90811   0.89182   0.34236   Biso      1.000     C          0.375126  
         C21       1.0000    0.96189   0.91087   0.39855   Biso      1.000     C          0.35733000000000004           
         C22       1.0000    0.78867   0.45936   0.12170   Biso      1.000     C          0.155627  
         C23       1.0000    0.86024   0.38203   0.10489   Biso      1.000     C          -0.175701           
         C24       1.0000    0.81135   0.32454   0.14316   Biso      1.000     C          -0.078179           
         C25       1.0000    0.69360   0.34388   0.19992   Biso      1.000     C          -0.08164400000000001          
         C26       1.0000    0.84497   0.82288   0.97778   Biso      1.000     C          0.17269400000000001           
         C27       1.0000    0.62225   0.41856   0.21714   Biso      1.000     C          -0.17937899999999998          
         C28       1.0000    0.64229   0.60818   0.15764   Biso      1.000     C          0.377743  
         C29       1.0000    0.77131   0.58913   0.10145   Biso      1.000     C          0.35631599999999997           
         C30       1.0000    0.91037   0.87830   0.95936   Biso      1.000     C          0.156898  
         C31       1.0000    0.96513   0.89511   0.88203   Biso      1.000     C          -0.17544200000000001          
         C32       1.0000    0.95451   0.85684   0.82454   Biso      1.000     C          -0.07645700000000001          
         C33       1.0000    0.89352   0.80008   0.84388   Biso      1.000     C          -0.083079           
         C34       1.0000    0.66785   0.47778   0.17712   Biso      1.000     C          0.173456  
         C35       1.0000    0.96252   0.30008   0.34388   Biso      1.000     C          -0.081635           
         C36       1.0000    0.86411   0.35684   0.32454   Biso      1.000     C          -0.076551           
         C37       1.0000    0.75773   0.39511   0.38203   Biso      1.000     C          -0.177653           
         C38       1.0000    0.13027   0.95936   0.62170   Biso      1.000     C          0.15578399999999998           
         C39       1.0000    0.15284   0.88203   0.60489   Biso      1.000     C          -0.176505           
         C40       1.0000    0.22095   0.82454   0.64316   Biso      1.000     C          -0.07723  
         C41       1.0000    0.26260   0.84388   0.69992   Biso      1.000     C          -0.08023200000000001          
         C42       1.0000    0.24205   0.91856   0.71714   Biso      1.000     C          -0.17693499999999998          
         C43       1.0000    0.17725   0.97778   0.67712   Biso      1.000     C          0.173264  
         C44       1.0000    0.09189   0.10818   0.65764   Biso      1.000     C          0.375134  
         C45       1.0000    0.03811   0.08913   0.60145   Biso      1.000     C          0.357323  
         C46       1.0000    0.82275   0.02222   0.32288   Biso      1.000     C          0.17327   
         C47       1.0000    0.13976   0.61797   0.89511   Biso      1.000     C          -0.175702           
         C48       1.0000    0.18865   0.67546   0.85684   Biso      1.000     C          -0.07818  
         C49       1.0000    0.30640   0.65612   0.80008   Biso      1.000     C          -0.081643           
         C50       1.0000    0.21133   0.54064   0.87830   Biso      1.000     C          0.155627  
         C51       1.0000    0.33215   0.52222   0.82288   Biso      1.000     C          0.173452  
         C52       1.0000    0.75197   0.37830   0.45936   Biso      1.000     C          0.155093  
         C53       1.0000    0.37775   0.58144   0.78286   Biso      1.000     C          -0.179385           
         C54       1.0000    0.20007   0.15764   0.89182   Biso      1.000     C          0.374282  
         C55       1.0000    0.15503   0.17712   0.02222   Biso      1.000     C          0.172698  
         C56       1.0000    0.16061   0.21714   0.08144   Biso      1.000     C          -0.179213           
         C57       1.0000    0.12724   0.10145   0.91087   Biso      1.000     C          0.35907100000000003           
         C58       1.0000    0.04549   0.14316   0.17546   Biso      1.000     C          -0.076462           
         C59       1.0000    0.03487   0.10489   0.11797   Biso      1.000     C          -0.17544300000000002          
         C60       1.0000    0.08963   0.12170   0.04064   Biso      1.000     C          0.1569    
         C61       1.0000    0.22869   0.41087   0.89855   Biso      1.000     C          0.35631399999999996           
         C62       1.0000    0.35771   0.39182   0.84236   Biso      1.000     C          0.377756  
         C63       1.0000    0.10648   0.19992   0.15612   Biso      1.000     C          -0.083079           
         C64       1.0000    0.75795   0.08144   0.28286   Biso      1.000     C          -0.176928           
         Cl1       1.0000    0.59644   0.58800   0.50752   Biso      1.000     Cl          -0.42617  
         Cl2       1.0000    0.19196   0.91200   0.99248   Biso      1.000     Cl          -0.425943           
         Cl3       1.0000    0.10396   0.49248   0.08800   Biso      1.000     Cl          -0.426059           
         Cl4       1.0000    0.18444   0.00752   0.41200   Biso      1.000     Cl          -0.42616099999999996          
         Cl5       1.0000    0.40356   0.41200   0.49248   Biso      1.000     Cl          -0.426166           
         Cl6       1.0000    0.80804   0.08800   0.00752   Biso      1.000     Cl          -0.425942           
         Cl7       1.0000    0.89604   0.50752   0.91200   Biso      1.000     Cl          -0.426059           
         Cl8       1.0000    0.81556   0.99248   0.58800   Biso      1.000     Cl          -0.426159           
         Cu1       1.0000    0.41496   0.59523   0.25743   Biso      1.000     Cu          0.697116  
         Cu2       1.0000    0.00000   0.00000   0.50000   Biso      1.000     Cu          0.781474  
         Cu3       1.0000    0.76762   0.90477   0.24257   Biso      1.000     Cu          0.697853  
         Cu4       1.0000    0.00000   0.00000   0.00000   Biso      1.000     Cu          0.780053  
         Cu5       1.0000    0.67239   0.74257   0.09523   Biso      1.000     Cu          0.6957909999999999  
         Cu6       1.0000    0.01019   0.75743   0.40477   Biso      1.000     Cu          0.6968949999999999  
         Cu7       1.0000    0.00000   0.50000   0.00000   Biso      1.000     Cu          0.780821  
         Cu8       1.0000    0.23238   0.09523   0.75743   Biso      1.000     Cu          0.697905  
         Cu9       1.0000    0.32761   0.25743   0.90477   Biso      1.000     Cu          0.695732  
         Cu10      1.0000    0.98981   0.24257   0.59523   Biso      1.000     Cu          0.696825  
         Cu11      1.0000    0.50000   0.50000   0.50000   Biso      1.000     Cu          0.781576  
         Cu12      1.0000    0.58504   0.40477   0.74257   Biso      1.000     Cu          0.697175  
         H1        1.0000    0.12150   0.86950   0.56750   Biso      1.000     H          0.119924  
         H2        1.0000    0.00900   0.93250   0.86950   Biso      1.000     H          0.119217  
         H3        1.0000    0.97260   0.75600   0.56980   Biso      1.000     H          0.12287000000000001           
         H4        1.0000    0.96620   0.72730   0.69610   Biso      1.000     H          0.106315  
         H5        1.0000    0.12980   0.63100   0.72780   Biso      1.000     H          0.109199  
         H6        1.0000    0.31100   0.56750   0.63050   Biso      1.000     H          0.12121099999999999           
         H7        1.0000    0.79840   0.74400   0.93020   Biso      1.000     H          0.123707  
         H8        1.0000    0.88960   0.77270   0.80390   Biso      1.000     H          0.106636  
         H9        1.0000    0.98860   0.86900   0.77220   Biso      1.000     H          0.109498  
         H10       1.0000    0.66230   0.30390   0.22730   Biso      1.000     H          0.10696099999999999           
         H11       1.0000    0.54240   0.43020   0.25600   Biso      1.000     H          0.123892  
         H12       1.0000    0.94150   0.36950   0.06750   Biso      1.000     H          0.12047000000000001           
         H13       1.0000    0.23920   0.77220   0.63100   Biso      1.000     H          0.109429  
         H14       1.0000    0.30650   0.80390   0.72730   Biso      1.000     H          0.10510599999999999           
         H15       1.0000    0.27140   0.93020   0.75600   Biso      1.000     H          0.121456  
         H16       1.0000    0.05850   0.63050   0.93250   Biso      1.000     H          0.12047100000000001           
         H17       1.0000    0.14240   0.72780   0.86900   Biso      1.000     H          0.109046  
         H18       1.0000    0.33770   0.69610   0.77270   Biso      1.000     H          0.10696199999999999           
         H19       1.0000    0.45760   0.56980   0.74400   Biso      1.000     H          0.12388900000000001           
         H20       1.0000    0.99100   0.06750   0.13050   Biso      1.000     H          0.11921500000000002           
         H21       1.0000    0.85760   0.27220   0.13100   Biso      1.000     H          0.109046  
         H22       1.0000    0.11040   0.22730   0.19610   Biso      1.000     H          0.106635  
         H23       1.0000    0.01140   0.13100   0.22780   Biso      1.000     H          0.109498  
         H24       1.0000    0.68900   0.43250   0.36950   Biso      1.000     H          0.121208  
         H25       1.0000    0.87020   0.36900   0.27220   Biso      1.000     H          0.109197  
         H26       1.0000    0.03380   0.27270   0.30390   Biso      1.000     H          0.106313  
         H27       1.0000    0.02740   0.24400   0.43020   Biso      1.000     H          0.12287200000000001           
         H28       1.0000    0.87850   0.13050   0.43250   Biso      1.000     H          0.119924  
         H29       1.0000    0.76080   0.22780   0.36900   Biso      1.000     H          0.109431  
         H30       1.0000    0.69350   0.19610   0.27270   Biso      1.000     H          0.105108  
         H31       1.0000    0.72860   0.06980   0.24400   Biso      1.000     H          0.12145999999999998           
         H32       1.0000    0.20160   0.25600   0.06980   Biso      1.000     H          0.12370999999999999           
         N1        1.0000    0.40613   0.44657   0.80759   Biso      1.000     N          -0.376219           
         N2        1.0000    0.16029   0.05343   0.69241   Biso      1.000     N          -0.373694           
         N3        1.0000    0.06078   0.01717   0.58373   Biso      1.000     N          -0.31822  
         N4        1.0000    0.16168   0.48283   0.91627   Biso      1.000     N          -0.317286           
         N5        1.0000    0.92205   0.91627   0.01717   Biso      1.000     N          -0.317231           
         N6        1.0000    0.07795   0.08373   0.98283   Biso      1.000     N          -0.317228           
         N7        1.0000    0.35549   0.58373   0.48283   Biso      1.000     N          -0.318436           
         N8        1.0000    0.21372   0.19241   0.94657   Biso      1.000     N          -0.372815           
         N9        1.0000    0.78628   0.80759   0.05343   Biso      1.000     N          -0.372802           
         N10       1.0000    0.83832   0.51717   0.08373   Biso      1.000     N          -0.31728  
         N11       1.0000    0.14730   0.69241   0.44657   Biso      1.000     N          -0.374992           
         N12       1.0000    0.93922   0.98283   0.41627   Biso      1.000     N          -0.318217           
         N13       1.0000    0.83971   0.94657   0.30759   Biso      1.000     N          -0.373702           
         N14       1.0000    0.64451   0.41627   0.51717   Biso      1.000     N          -0.31843  
         N15       1.0000    0.85270   0.30759   0.55343   Biso      1.000     N          -0.375002           
         N16       1.0000    0.59387   0.55343   0.19241   Biso      1.000     N          -0.376225           
         O1        1.0000    0.54263   0.42987   0.64577   Biso      1.000     O          -0.47739899999999996          
         O2        1.0000    0.41949   0.32064   0.83070   Biso      1.000     O          -0.500049           
         O3        1.0000    0.18840   0.35423   0.92987   Biso      1.000     O          -0.47606899999999996          
         O4        1.0000    0.25019   0.16930   0.82064   Biso      1.000     O          -0.500618           
         O5        1.0000    0.11827   0.07013   0.85423   Biso      1.000     O          -0.478013           
         O6        1.0000    0.74013   0.33070   0.67936   Biso      1.000     O          -0.501532           
         O7        1.0000    0.92917   0.82064   0.33070   Biso      1.000     O          -0.4997   
         O8        1.0000    0.97250   0.14577   0.57013   Biso      1.000     O          -0.476759           
         O9        1.0000    0.58051   0.67936   0.16930   Biso      1.000     O          -0.500053           
         O10       1.0000    0.81160   0.64577   0.07013   Biso      1.000     O          -0.476088           
         O11       1.0000    0.74981   0.83070   0.17936   Biso      1.000     O          -0.500612           
         O12       1.0000    0.88173   0.92987   0.14577   Biso      1.000     O          -0.477995           
         O13       1.0000    0.25987   0.66930   0.32064   Biso      1.000     O          -0.501524           
         O14       1.0000    0.45737   0.57013   0.35423   Biso      1.000     O          -0.477382           
         O15       1.0000    0.02750   0.85423   0.42987   Biso      1.000     O          -0.476785           
         O16       1.0000    0.07083   0.17936   0.66930   Biso      1.000     O          -0.49969300000000005 