
##########################################################################
#               Crystallographic Information Format file
#               Produced by PyCifRW module
#
#  This is a CIF file.  CIF has been adopted by the International
#  Union of Crystallography as the standard for data archiving and
#  transmission.
#
#  For information on this file format, follow the CIF links at
#  http://www.iucr.org
##########################################################################

data_image0

_cell_length_a                          10.895
_cell_length_b                          13.052
_cell_length_c                          13.536
_cell_angle_alpha                       90
_cell_angle_beta                        95.74
_cell_angle_gamma                       90
_symmetry_space_group_name_H-M          'P 1'
_symmetry_int_tables_number             1
loop_
  _symmetry_equiv_pos_as_xyz
         'x, y, z' 
loop_
  _atom_site_label
  _atom_site_occupancy
  _atom_site_fract_x
  _atom_site_fract_y
  _atom_site_fract_z
  _atom_site_thermal_displace_type
  _atom_site_B_iso_or_equiv
  _atom_site_type_symbol
  _atom_site_charge
         C1        1.0000    0.57790   0.06344   0.71223   Biso      1.000     C          -0.21146  
         C2        1.0000    0.66150   0.44909   0.56423   Biso      1.000     C          -0.213832           
         C3        1.0000    0.91030   0.74413   0.46474   Biso      1.000     C          0.659975  
         C4        1.0000    0.41030   0.75587   0.96474   Biso      1.000     C          0.659975  
         C5        1.0000    0.71580   0.52183   0.50963   Biso      1.000     C          0.092452  
         C6        1.0000    0.15380   0.50553   0.85139   Biso      1.000     C          0.097721  
         C7        1.0000    0.87660   0.18245   0.30520   Biso      1.000     C          0.636403  
         C8        1.0000    0.95610   0.24712   0.37773   Biso      1.000     C          -0.308556           
         C9        1.0000    0.47350   0.89935   0.37807   Biso      1.000     C          0.192774  
         C10       1.0000    0.99590   0.19213   0.47447   Biso      1.000     C          -0.306664           
         C11       1.0000    0.51100   0.99894   0.76607   Biso      1.000     C          0.091407  
         C12       1.0000    0.42210   0.93656   0.28777   Biso      1.000     C          -0.211456           
         C13       1.0000    0.45610   0.25288   0.87773   Biso      1.000     C          -0.308556           
         C14       1.0000    0.83080   0.92987   0.13185   Biso      1.000     C          0.111171  
         C15       1.0000    0.45250   0.71642   0.42235   Biso      1.000     C          -0.228294           
         C16       1.0000    0.09080   0.56940   0.90928   Biso      1.000     C          -0.18656  
         C17       1.0000    0.49590   0.30787   0.97447   Biso      1.000     C          -0.306664           
         C18       1.0000    0.33850   0.55091   0.43577   Biso      1.000     C          -0.213831           
         C19       1.0000    0.98900   0.49894   0.73393   Biso      1.000     C          0.091395  
         C20       1.0000    0.65380   0.99447   0.35139   Biso      1.000     C          0.09772   
         C21       1.0000    0.92210   0.56344   0.78777   Biso      1.000     C          -0.211448           
         C22       1.0000    0.28420   0.47817   0.49037   Biso      1.000     C          0.092452  
         C23       1.0000    0.61360   0.35489   0.41837   Biso      1.000     C          -0.195627           
         C24       1.0000    0.16150   0.05091   0.06423   Biso      1.000     C          -0.213831           
         C25       1.0000    0.04750   0.21642   0.07765   Biso      1.000     C          -0.228294           
         C26       1.0000    0.04390   0.75288   0.62227   Biso      1.000     C          -0.308556           
         C27       1.0000    0.40920   0.06940   0.59072   Biso      1.000     C          -0.186569           
         C28       1.0000    0.84620   0.49447   0.14861   Biso      1.000     C          0.09772   
         C29       1.0000    0.02650   0.39935   0.12193   Biso      1.000     C          0.192773  
         C30       1.0000    0.16920   0.07013   0.86815   Biso      1.000     C          0.111171  
         C31       1.0000    0.10920   0.13674   0.01947   Biso      1.000     C          0.193698  
         C32       1.0000    0.90920   0.43060   0.09072   Biso      1.000     C          -0.186551           
         C33       1.0000    0.01100   0.50106   0.26607   Biso      1.000     C          0.091394  
         C34       1.0000    0.54390   0.74712   0.12227   Biso      1.000     C          -0.308556           
         C35       1.0000    0.50410   0.69213   0.02553   Biso      1.000     C          -0.306664           
         C36       1.0000    0.34620   0.00553   0.64861   Biso      1.000     C          0.09773   
         C37       1.0000    0.66920   0.42987   0.36815   Biso      1.000     C          0.11118   
         C38       1.0000    0.21580   0.97817   0.00963   Biso      1.000     C          0.092452  
         C39       1.0000    0.52650   0.10065   0.62193   Biso      1.000     C          0.192785  
         C40       1.0000    0.07790   0.43656   0.21223   Biso      1.000     C          -0.211444           
         C41       1.0000    0.09190   0.32414   0.06230   Biso      1.000     C          -0.232042           
         C42       1.0000    0.00410   0.80787   0.52553   Biso      1.000     C          -0.306664           
         C43       1.0000    0.54750   0.28358   0.57765   Biso      1.000     C          -0.228294           
         C44       1.0000    0.12340   0.81755   0.69480   Biso      1.000     C          0.636403  
         C45       1.0000    0.62340   0.68245   0.19480   Biso      1.000     C          0.636403  
         C46       1.0000    0.11360   0.14511   0.91837   Biso      1.000     C          -0.195618           
         C47       1.0000    0.59080   0.93060   0.40928   Biso      1.000     C          -0.186552           
         C48       1.0000    0.89080   0.86326   0.98053   Biso      1.000     C          0.193692  
         C49       1.0000    0.60920   0.36326   0.51947   Biso      1.000     C          0.1937    
         C50       1.0000    0.40810   0.82414   0.43770   Biso      1.000     C          -0.232041           
         C51       1.0000    0.83850   0.94909   0.93577   Biso      1.000     C          -0.213825           
         C52       1.0000    0.59190   0.17586   0.56230   Biso      1.000     C          -0.232042           
         C53       1.0000    0.33080   0.57013   0.63185   Biso      1.000     C          0.111172  
         C54       1.0000    0.90810   0.67586   0.93770   Biso      1.000     C          -0.232043           
         C55       1.0000    0.78420   0.02183   0.99037   Biso      1.000     C          0.092451  
         C56       1.0000    0.38640   0.64511   0.58163   Biso      1.000     C          -0.195619           
         C57       1.0000    0.95250   0.78358   0.92235   Biso      1.000     C          -0.228293           
         C58       1.0000    0.37660   0.31755   0.80520   Biso      1.000     C          0.636403  
         C59       1.0000    0.97350   0.60065   0.87807   Biso      1.000     C          0.192783  
         C60       1.0000    0.88640   0.85489   0.08163   Biso      1.000     C          -0.195617           
         C61       1.0000    0.48900   0.00106   0.23393   Biso      1.000     C          0.091406  
         C62       1.0000    0.58970   0.24413   0.03526   Biso      1.000     C          0.659975  
         C63       1.0000    0.08970   0.25587   0.53526   Biso      1.000     C          0.659975  
         C64       1.0000    0.39080   0.63674   0.48053   Biso      1.000     C          0.193699  
         H1        1.0000    0.57800   0.29710   0.38370   Biso      1.000     H          0.135733  
         H2        1.0000    0.54250   0.71360   0.44140   Biso      1.000     H          0.135297  
         H3        1.0000    0.32860   0.57790   0.70140   Biso      1.000     H          0.100592  
         H4        1.0000    0.46940   0.76850   0.15330   Biso      1.000     H          0.12264   
         H5        1.0000    0.07660   0.81940   0.48820   Biso      1.000     H          0.117949  
         H6        1.0000    0.57660   0.68060   0.98820   Biso      1.000     H          0.117949  
         H7        1.0000    0.56200   0.30060   0.64910   Biso      1.000     H          0.118703  
         H8        1.0000    0.75140   0.58050   0.54280   Biso      1.000     H          0.096021  
         H9        1.0000    0.18180   0.32800   0.08220   Biso      1.000     H          0.115754  
         H10       1.0000    0.66020   0.45830   0.63370   Biso      1.000     H          0.131609  
         H11       1.0000    0.37100   0.09200   0.52840   Biso      1.000     H          0.135416  
         H12       1.0000    0.67140   0.42210   0.29860   Biso      1.000     H          0.100591  
         H13       1.0000    0.41010   0.19020   0.89240   Biso      1.000     H          0.118242  
         H14       1.0000    0.08990   0.69020   0.60760   Biso      1.000     H          0.118242  
         H15       1.0000    0.95140   0.47330   0.67250   Biso      1.000     H          0.090872  
         H16       1.0000    0.74860   0.08050   0.95720   Biso      1.000     H          0.096021  
         H17       1.0000    0.83980   0.95830   0.86630   Biso      1.000     H          0.131609  
         H18       1.0000    0.92200   0.79710   0.11630   Biso      1.000     H          0.135732  
         H19       1.0000    0.92340   0.18060   0.51180   Biso      1.000     H          0.117949  
         H20       1.0000    0.73550   0.01440   0.37470   Biso      1.000     H          0.101565  
         H21       1.0000    0.03060   0.26850   0.34670   Biso      1.000     H          0.12264   
         H22       1.0000    0.42200   0.70290   0.61630   Biso      1.000     H          0.135733  
         H23       1.0000    0.53060   0.23150   0.84670   Biso      1.000     H          0.12264   
         H24       1.0000    0.45140   0.02670   0.17250   Biso      1.000     H          0.090871  
         H25       1.0000    0.92260   0.65790   0.00890   Biso      1.000     H          0.111967  
         H26       1.0000    0.81820   0.67200   0.91780   Biso      1.000     H          0.115754  
         H27       1.0000    0.34060   0.91750   0.26310   Biso      1.000     H          0.129633  
         H28       1.0000    0.58990   0.80980   0.10760   Biso      1.000     H          0.118242  
         H29       1.0000    0.03180   0.12460   0.46040   Biso      1.000     H          0.132672  
         H30       1.0000    0.84060   0.58250   0.76310   Biso      1.000     H          0.129633  
         H31       1.0000    0.33980   0.54170   0.36630   Biso      1.000     H          0.131609  
         H32       1.0000    0.42340   0.31940   0.01180   Biso      1.000     H          0.117949  
         H33       1.0000    0.23550   0.48560   0.87470   Biso      1.000     H          0.101564  
         H34       1.0000    0.45750   0.28640   0.55860   Biso      1.000     H          0.135298  
         H35       1.0000    0.15940   0.41750   0.23690   Biso      1.000     H          0.129632  
         H36       1.0000    0.87100   0.40800   0.02840   Biso      1.000     H          0.135415  
         H37       1.0000    0.43800   0.69940   0.35090   Biso      1.000     H          0.118703  
         H38       1.0000    0.53180   0.37540   0.96040   Biso      1.000     H          0.132672  
         H39       1.0000    0.31820   0.82800   0.41780   Biso      1.000     H          0.115753  
         H40       1.0000    0.93800   0.80060   0.85090   Biso      1.000     H          0.118703  
         H41       1.0000    0.12900   0.59200   0.97160   Biso      1.000     H          0.135416  
         H42       1.0000    0.91010   0.30980   0.39240   Biso      1.000     H          0.118242  
         H43       1.0000    0.82860   0.92210   0.20140   Biso      1.000     H          0.100592  
         H44       1.0000    0.24860   0.41950   0.45720   Biso      1.000     H          0.096021  
         H45       1.0000    0.42260   0.84210   0.50890   Biso      1.000     H          0.111967  
         H46       1.0000    0.96820   0.87540   0.53960   Biso      1.000     H          0.132672  
         H47       1.0000    0.04250   0.78640   0.94140   Biso      1.000     H          0.135298  
         H48       1.0000    0.07800   0.20290   0.88370   Biso      1.000     H          0.135733  
         H49       1.0000    0.07740   0.34210   0.99110   Biso      1.000     H          0.111967  
         H50       1.0000    0.76450   0.51440   0.12530   Biso      1.000     H          0.101564  
         H51       1.0000    0.96940   0.73150   0.65330   Biso      1.000     H          0.12264   
         H52       1.0000    0.17140   0.07790   0.79860   Biso      1.000     H          0.100592  
         H53       1.0000    0.04860   0.52670   0.32750   Biso      1.000     H          0.090872  
         H54       1.0000    0.16020   0.04170   0.13370   Biso      1.000     H          0.131609  
         H55       1.0000    0.57740   0.15790   0.49110   Biso      1.000     H          0.111967  
         H56       1.0000    0.46820   0.62460   0.03960   Biso      1.000     H          0.132671  
         H57       1.0000    0.54860   0.97330   0.82750   Biso      1.000     H          0.090871  
         H58       1.0000    0.95750   0.21360   0.05860   Biso      1.000     H          0.135298  
         H59       1.0000    0.65940   0.08250   0.73690   Biso      1.000     H          0.129633  
         H60       1.0000    0.06200   0.19940   0.14910   Biso      1.000     H          0.118703  
         H61       1.0000    0.25140   0.91950   0.04280   Biso      1.000     H          0.096021  
         H62       1.0000    0.68180   0.17200   0.58220   Biso      1.000     H          0.115753  
         H63       1.0000    0.26450   0.98560   0.62530   Biso      1.000     H          0.101564  
         H64       1.0000    0.62900   0.90800   0.47160   Biso      1.000     H          0.135415  
         N1        1.0000    0.60439   0.02958   0.26353   Biso      1.000     N          -0.219159           
         N2        1.0000    0.72054   0.51334   0.41142   Biso      1.000     N          -0.22621  
         N3        1.0000    0.10439   0.47042   0.76353   Biso      1.000     N          -0.219158           
         N4        1.0000    0.39561   0.97042   0.73647   Biso      1.000     N          -0.21916  
         N5        1.0000    0.22054   0.98666   0.91142   Biso      1.000     N          -0.226209           
         N6        1.0000    0.89561   0.52958   0.23647   Biso      1.000     N          -0.219158           
         N7        1.0000    0.77946   0.01334   0.08858   Biso      1.000     N          -0.226209           
         N8        1.0000    0.27946   0.48666   0.58858   Biso      1.000     N          -0.22621  
         O1        1.0000    0.05348   0.31079   0.60485   Biso      1.000     O          -0.597073           
         O2        1.0000    0.10035   0.91014   0.70400   Biso      1.000     O          -0.602449           
         O3        1.0000    0.21267   0.77399   0.74516   Biso      1.000     O          -0.559462           
         O4        1.0000    0.71267   0.72601   0.24516   Biso      1.000     O          -0.559461           
         O5        1.0000    0.94652   0.68921   0.39515   Biso      1.000     O          -0.597072           
         O6        1.0000    0.80198   0.74314   0.48386   Biso      1.000     O          -0.611115           
         O7        1.0000    0.44652   0.81079   0.89515   Biso      1.000     O          -0.597073           
         O8        1.0000    0.30198   0.75686   0.98386   Biso      1.000     O          -0.611115           
         O9        1.0000    0.60035   0.58986   0.20400   Biso      1.000     O          -0.602449           
         O10       1.0000    0.19802   0.25686   0.51614   Biso      1.000     O          -0.611115           
         O11       1.0000    0.78733   0.22601   0.25484   Biso      1.000     O          -0.559462           
         O12       1.0000    0.55348   0.18921   0.10485   Biso      1.000     O          -0.597073           
         O13       1.0000    0.39965   0.41014   0.79600   Biso      1.000     O          -0.602449           
         O14       1.0000    0.69802   0.24314   0.01614   Biso      1.000     O          -0.611115           
         O15       1.0000    0.89965   0.08986   0.29600   Biso      1.000     O          -0.602449           
         O16       1.0000    0.28733   0.27399   0.75484   Biso      1.000     O          -0.559462           
         Zn1       1.0000    0.29899   0.88025   0.82734   Biso      1.000     Zn          0.728216  
         Zn2       1.0000    0.20101   0.38025   0.67266   Biso      1.000     Zn          0.728218  
         Zn3       1.0000    0.79899   0.61975   0.32734   Biso      1.000     Zn          0.728217  
         Zn4       1.0000    0.70101   0.11975   0.17266   Biso      1.000     Zn          0.728218 