
##########################################################################
#               Crystallographic Information Format file
#               Produced by PyCifRW module
#
#  This is a CIF file.  CIF has been adopted by the International
#  Union of Crystallography as the standard for data archiving and
#  transmission.
#
#  For information on this file format, follow the CIF links at
#  http://www.iucr.org
##########################################################################

data_image0

_cell_length_a                          10.5081
_cell_length_b                          12.296
_cell_length_c                          16.6714
_cell_angle_alpha                       90
_cell_angle_beta                        90
_cell_angle_gamma                       90
_symmetry_space_group_name_H-M          'P 1'
_symmetry_int_tables_number             1
loop_
  _symmetry_equiv_pos_as_xyz
         'x, y, z' 
loop_
  _atom_site_label
  _atom_site_occupancy
  _atom_site_fract_x
  _atom_site_fract_y
  _atom_site_fract_z
  _atom_site_thermal_displace_type
  _atom_site_B_iso_or_equiv
  _atom_site_type_symbol
  _atom_site_charge
         C1        1.0000    0.26020   0.06690   0.19350   Biso      1.000     C          0.09512899999999999           
         C2        1.0000    0.73980   0.93310   0.80650   Biso      1.000     C          0.095126  
         C3        1.0000    0.97000   0.13310   0.36710   Biso      1.000     C          0.663485  
         C4        1.0000    0.93350   0.00380   0.48570   Biso      1.000     C          -0.148625           
         C5        1.0000    0.48010   0.50960   0.54380   Biso      1.000     C          -0.235815           
         C6        1.0000    0.53000   0.13310   0.63290   Biso      1.000     C          0.663485  
         C7        1.0000    0.47000   0.86690   0.36710   Biso      1.000     C          0.663485  
         C8        1.0000    0.43350   0.50380   0.01430   Biso      1.000     C          -0.148624           
         C9        1.0000    0.43350   0.99620   0.48570   Biso      1.000     C          -0.148624           
         C10       1.0000    0.08310   0.43570   0.59060   Biso      1.000     C          0.203319  
         C11       1.0000    0.78590   0.78050   0.11740   Biso      1.000     C          0.071475  
         C12       1.0000    0.01990   0.99040   0.04380   Biso      1.000     C          -0.235816           
         C13       1.0000    0.58310   0.93570   0.90940   Biso      1.000     C          0.203318  
         C14       1.0000    0.59220   0.46590   0.90080   Biso      1.000     C          -0.340239           
         C15       1.0000    0.85390   0.98710   0.15060   Biso      1.000     C          -0.194356           
         C16       1.0000    0.14610   0.01290   0.84940   Biso      1.000     C          -0.194356           
         C17       1.0000    0.91690   0.93570   0.09060   Biso      1.000     C          0.203334  
         C18       1.0000    0.40780   0.96590   0.40080   Biso      1.000     C          -0.340239           
         C19       1.0000    0.56650   0.00380   0.51430   Biso      1.000     C          -0.148625           
         C20       1.0000    0.85390   0.51290   0.34940   Biso      1.000     C          -0.194356           
         C21       1.0000    0.08310   0.06430   0.90940   Biso      1.000     C          0.203334  
         C22       1.0000    0.21410   0.28050   0.61740   Biso      1.000     C          0.071475  
         C23       1.0000    0.53000   0.36690   0.86710   Biso      1.000     C          0.663485  
         C24       1.0000    0.40780   0.53410   0.09920   Biso      1.000     C          -0.340239           
         C25       1.0000    0.56650   0.49620   0.98570   Biso      1.000     C          -0.148625           
         C26       1.0000    0.91690   0.56430   0.40940   Biso      1.000     C          0.203334  
         C27       1.0000    0.90780   0.46590   0.09920   Biso      1.000     C          -0.340239           
         C28       1.0000    0.26020   0.43310   0.30650   Biso      1.000     C          0.09512899999999999           
         C29       1.0000    0.73980   0.56690   0.69350   Biso      1.000     C          0.095126  
         C30       1.0000    0.35390   0.48710   0.34940   Biso      1.000     C          -0.194354           
         C31       1.0000    0.71410   0.71950   0.61740   Biso      1.000     C          0.071475  
         C32       1.0000    0.51990   0.00960   0.04380   Biso      1.000     C          -0.235816           
         C33       1.0000    0.93350   0.49620   0.01430   Biso      1.000     C          -0.148624           
         C34       1.0000    0.41690   0.43570   0.40940   Biso      1.000     C          0.203334  
         C35       1.0000    0.09220   0.96590   0.59920   Biso      1.000     C          -0.340239           
         C36       1.0000    0.51990   0.49040   0.45620   Biso      1.000     C          -0.235815           
         C37       1.0000    0.58310   0.56430   0.59060   Biso      1.000     C          0.203319  
         C38       1.0000    0.48010   0.99040   0.95620   Biso      1.000     C          -0.235814           
         C39       1.0000    0.35390   0.01290   0.15060   Biso      1.000     C          -0.194354           
         C40       1.0000    0.97000   0.36690   0.13290   Biso      1.000     C          0.663485  
         C41       1.0000    0.64610   0.98710   0.84940   Biso      1.000     C          -0.19433699999999998          
         C42       1.0000    0.71410   0.78050   0.88260   Biso      1.000     C          0.071475  
         C43       1.0000    0.38170   0.32800   0.42610   Biso      1.000     C          -0.198655           
         C44       1.0000    0.61830   0.67200   0.57390   Biso      1.000     C          -0.198649           
         C45       1.0000    0.61830   0.82800   0.92610   Biso      1.000     C          -0.198649           
         C46       1.0000    0.03000   0.63310   0.86710   Biso      1.000     C          0.663484  
         C47       1.0000    0.90780   0.03410   0.40080   Biso      1.000     C          -0.340239           
         C48       1.0000    0.41690   0.06430   0.09060   Biso      1.000     C          0.203334  
         C49       1.0000    0.28590   0.28050   0.38260   Biso      1.000     C          0.07148   
         C50       1.0000    0.09220   0.53410   0.90080   Biso      1.000     C          -0.340239           
         C51       1.0000    0.38170   0.17200   0.07390   Biso      1.000     C          -0.198655           
         C52       1.0000    0.06650   0.50380   0.98570   Biso      1.000     C          -0.148625           
         C53       1.0000    0.64610   0.51290   0.65060   Biso      1.000     C          -0.19433699999999998          
         C54       1.0000    0.06650   0.99620   0.51430   Biso      1.000     C          -0.148625           
         C55       1.0000    0.88170   0.67200   0.42610   Biso      1.000     C          -0.198655           
         C56       1.0000    0.23980   0.06690   0.80650   Biso      1.000     C          0.095131  
         C57       1.0000    0.28590   0.21950   0.11740   Biso      1.000     C          0.07148   
         C58       1.0000    0.47000   0.63310   0.13290   Biso      1.000     C          0.663485  
         C59       1.0000    0.14610   0.48710   0.65060   Biso      1.000     C          -0.194339           
         C60       1.0000    0.03000   0.86690   0.63290   Biso      1.000     C          0.663485  
         C61       1.0000    0.01990   0.50960   0.45620   Biso      1.000     C          -0.235815           
         C62       1.0000    0.21410   0.21950   0.88260   Biso      1.000     C          0.071475  
         C63       1.0000    0.98010   0.49040   0.54380   Biso      1.000     C          -0.235814           
         C64       1.0000    0.11830   0.32800   0.57390   Biso      1.000     C          -0.198648           
         C65       1.0000    0.78590   0.71950   0.38260   Biso      1.000     C          0.07148   
         C66       1.0000    0.76020   0.56690   0.30650   Biso      1.000     C          0.095131  
         C67       1.0000    0.88170   0.82800   0.07390   Biso      1.000     C          -0.19865  
         C68       1.0000    0.23980   0.43310   0.69350   Biso      1.000     C          0.09512899999999999           
         C69       1.0000    0.98010   0.00960   0.95620   Biso      1.000     C          -0.235815           
         C70       1.0000    0.11830   0.17200   0.92610   Biso      1.000     C          -0.19865  
         C71       1.0000    0.76020   0.93310   0.19350   Biso      1.000     C          0.095131  
         C72       1.0000    0.59220   0.03410   0.59920   Biso      1.000     C          -0.340239           
         H1        1.0000    0.18340   0.95690   0.60490   Biso      1.000     H          0.136498  
         H2        1.0000    0.60650   0.93390   0.50480   Biso      1.000     H          0.090322  
         H3        1.0000    0.60650   0.56610   0.99520   Biso      1.000     H          0.090322  
         H4        1.0000    0.57710   0.78920   0.96640   Biso      1.000     H          0.138621  
         H5        1.0000    0.89010   0.05640   0.51940   Biso      1.000     H          0.09243   
         H6        1.0000    0.18340   0.54310   0.89510   Biso      1.000     H          0.136498  
         H7        1.0000    0.73900   0.78990   0.60450   Biso      1.000     H          0.09135599999999999           
         H8        1.0000    0.54000   0.55970   0.43140   Biso      1.000     H          0.120968  
         H9        1.0000    0.42290   0.21080   0.03360   Biso      1.000     H          0.138621  
         H10       1.0000    0.40410   0.55430   0.54500   Biso      1.000     H          0.126625  
         H11       1.0000    0.46000   0.05970   0.93140   Biso      1.000     H          0.120968  
         H12       1.0000    0.59590   0.05430   0.04500   Biso      1.000     H          0.126626  
         H13       1.0000    0.21920   0.46970   0.26510   Biso      1.000     H          0.09762699999999999           
         H14       1.0000    0.62640   0.05890   0.83700   Biso      1.000     H          0.13941900000000002           
         H15       1.0000    0.23900   0.21010   0.60450   Biso      1.000     H          0.09135599999999999           
         H16       1.0000    0.81660   0.04310   0.39510   Biso      1.000     H          0.136498  
         H17       1.0000    0.37360   0.55890   0.33700   Biso      1.000     H          0.13942000000000002           
         H18       1.0000    0.81660   0.45690   0.10490   Biso      1.000     H          0.136498  
         H19       1.0000    0.04000   0.05970   0.06860   Biso      1.000     H          0.120968  
         H20       1.0000    0.28080   0.46970   0.73490   Biso      1.000     H          0.09762699999999999           
         H21       1.0000    0.43220   0.02710   0.36750   Biso      1.000     H          0.11113599999999998           
         H22       1.0000    0.56780   0.97290   0.63250   Biso      1.000     H          0.11113599999999998           
         H23       1.0000    0.43220   0.47290   0.13250   Biso      1.000     H          0.11113599999999998           
         H24       1.0000    0.09590   0.55430   0.45500   Biso      1.000     H          0.126625  
         H25       1.0000    0.12640   0.94110   0.83700   Biso      1.000     H          0.13942000000000002           
         H26       1.0000    0.39010   0.94360   0.51940   Biso      1.000     H          0.09243   
         H27       1.0000    0.07710   0.21080   0.96640   Biso      1.000     H          0.138621  
         H28       1.0000    0.04000   0.44030   0.43140   Biso      1.000     H          0.120968  
         H29       1.0000    0.31660   0.54310   0.10490   Biso      1.000     H          0.136498  
         H30       1.0000    0.76100   0.71010   0.10450   Biso      1.000     H          0.09135599999999999           
         H31       1.0000    0.56780   0.52710   0.86750   Biso      1.000     H          0.11113599999999998           
         H32       1.0000    0.60990   0.05640   0.48060   Biso      1.000     H          0.09243   
         H33       1.0000    0.09590   0.94570   0.04500   Biso      1.000     H          0.126626  
         H34       1.0000    0.23900   0.28990   0.89550   Biso      1.000     H          0.09135599999999999           
         H35       1.0000    0.90410   0.05430   0.95500   Biso      1.000     H          0.126625  
         H36       1.0000    0.10650   0.43390   0.99520   Biso      1.000     H          0.090322  
         H37       1.0000    0.76100   0.78990   0.39550   Biso      1.000     H          0.09135599999999999           
         H38       1.0000    0.68340   0.45690   0.89510   Biso      1.000     H          0.136498  
         H39       1.0000    0.71920   0.96970   0.23490   Biso      1.000     H          0.09762699999999999           
         H40       1.0000    0.68340   0.04310   0.60490   Biso      1.000     H          0.136498  
         H41       1.0000    0.71920   0.53030   0.26510   Biso      1.000     H          0.09762699999999999           
         H42       1.0000    0.21920   0.03030   0.23490   Biso      1.000     H          0.09762699999999999           
         H43       1.0000    0.26100   0.21010   0.39550   Biso      1.000     H          0.09135599999999999           
         H44       1.0000    0.62640   0.44110   0.66300   Biso      1.000     H          0.13941900000000002           
         H45       1.0000    0.26100   0.28990   0.10450   Biso      1.000     H          0.09135599999999999           
         H46       1.0000    0.96000   0.55970   0.56860   Biso      1.000     H          0.120968  
         H47       1.0000    0.54000   0.94030   0.06860   Biso      1.000     H          0.120968  
         H48       1.0000    0.39350   0.06610   0.49520   Biso      1.000     H          0.090322  
         H49       1.0000    0.92290   0.71080   0.46640   Biso      1.000     H          0.138621  
         H50       1.0000    0.12640   0.55890   0.66300   Biso      1.000     H          0.13941900000000002           
         H51       1.0000    0.39010   0.55640   0.98060   Biso      1.000     H          0.09243   
         H52       1.0000    0.87360   0.05890   0.16300   Biso      1.000     H          0.13942000000000002           
         H53       1.0000    0.28080   0.03030   0.76510   Biso      1.000     H          0.09762699999999999           
         H54       1.0000    0.60990   0.44360   0.01940   Biso      1.000     H          0.09243   
         H55       1.0000    0.90410   0.44570   0.54500   Biso      1.000     H          0.126625  
         H56       1.0000    0.31660   0.95690   0.39510   Biso      1.000     H          0.136498  
         H57       1.0000    0.87360   0.44110   0.33700   Biso      1.000     H          0.13942000000000002           
         H58       1.0000    0.39350   0.43390   0.00480   Biso      1.000     H          0.090322  
         H59       1.0000    0.92290   0.78920   0.03360   Biso      1.000     H          0.138621  
         H60       1.0000    0.78080   0.53030   0.73490   Biso      1.000     H          0.09762699999999999           
         H61       1.0000    0.96000   0.94030   0.93140   Biso      1.000     H          0.120968  
         H62       1.0000    0.57710   0.71080   0.53360   Biso      1.000     H          0.138621  
         H63       1.0000    0.93220   0.52710   0.13250   Biso      1.000     H          0.11113599999999998           
         H64       1.0000    0.89010   0.44360   0.98060   Biso      1.000     H          0.09243   
         H65       1.0000    0.10650   0.06610   0.50480   Biso      1.000     H          0.090322  
         H66       1.0000    0.59590   0.44570   0.45500   Biso      1.000     H          0.126625  
         H67       1.0000    0.78080   0.96970   0.76510   Biso      1.000     H          0.09762799999999999           
         H68       1.0000    0.46000   0.44030   0.56860   Biso      1.000     H          0.120968  
         H69       1.0000    0.10990   0.94360   0.48060   Biso      1.000     H          0.09243   
         H70       1.0000    0.89350   0.56610   0.00480   Biso      1.000     H          0.090322  
         H71       1.0000    0.06780   0.02710   0.63250   Biso      1.000     H          0.11113599999999998           
         H72       1.0000    0.10990   0.55640   0.01940   Biso      1.000     H          0.09243   
         H73       1.0000    0.73900   0.71010   0.89550   Biso      1.000     H          0.09135599999999999           
         H74       1.0000    0.42290   0.28920   0.46640   Biso      1.000     H          0.138621  
         H75       1.0000    0.37360   0.94110   0.16300   Biso      1.000     H          0.13942000000000002           
         H76       1.0000    0.06780   0.47290   0.86750   Biso      1.000     H          0.11113599999999998           
         H77       1.0000    0.40410   0.94570   0.95500   Biso      1.000     H          0.126625  
         H78       1.0000    0.89350   0.93390   0.49520   Biso      1.000     H          0.090322  
         H79       1.0000    0.93220   0.97290   0.36750   Biso      1.000     H          0.11113599999999998           
         H80       1.0000    0.07710   0.28920   0.53360   Biso      1.000     H          0.138621  
         N1        1.0000    0.77320   0.83130   0.82221   Biso      1.000     N          -0.234498           
         N2        1.0000    0.27320   0.16870   0.82221   Biso      1.000     N          -0.2345   
         N3        1.0000    0.72680   0.66870   0.32221   Biso      1.000     N          -0.2345   
         N4        1.0000    0.77320   0.66870   0.67779   Biso      1.000     N          -0.234498           
         N5        1.0000    0.22680   0.16870   0.17779   Biso      1.000     N          -0.2345   
         N6        1.0000    0.22680   0.33130   0.32221   Biso      1.000     N          -0.2345   
         N7        1.0000    0.72680   0.83130   0.17779   Biso      1.000     N          -0.23449899999999999          
         N8        1.0000    0.27320   0.33130   0.67779   Biso      1.000     N          -0.23449899999999999          
         O1        1.0000    0.52330   0.62710   0.19955   Biso      1.000     O          -0.579626           
         O2        1.0000    0.97670   0.62710   0.80045   Biso      1.000     O          -0.579625           
         O3        1.0000    0.02330   0.37290   0.19955   Biso      1.000     O          -0.579626           
         O4        1.0000    0.95610   0.27820   0.09720   Biso      1.000     O          -0.623765           
         O5        1.0000    0.04390   0.72180   0.90280   Biso      1.000     O          -0.623765           
         O6        1.0000    0.97670   0.87290   0.69955   Biso      1.000     O          -0.579625           
         O7        1.0000    0.04390   0.77820   0.59720   Biso      1.000     O          -0.623765           
         O8        1.0000    0.02330   0.12710   0.30045   Biso      1.000     O          -0.579626           
         O9        1.0000    0.95610   0.22180   0.40280   Biso      1.000     O          -0.623765           
         O10       1.0000    0.54390   0.22180   0.59720   Biso      1.000     O          -0.623765           
         O11       1.0000    0.45610   0.72180   0.09720   Biso      1.000     O          -0.623765           
         O12       1.0000    0.47670   0.12710   0.69955   Biso      1.000     O          -0.579626           
         O13       1.0000    0.47670   0.37290   0.80045   Biso      1.000     O          -0.579626           
         O14       1.0000    0.54390   0.27820   0.90280   Biso      1.000     O          -0.623765           
         O15       1.0000    0.52330   0.87290   0.30045   Biso      1.000     O          -0.579625           
         O16       1.0000    0.45610   0.77820   0.40280   Biso      1.000     O          -0.623765           
         Zn1       1.0000    0.90095   0.75000   0.75000   Biso      1.000     Zn          0.754293  
         Zn2       1.0000    0.59905   0.75000   0.25000   Biso      1.000     Zn          0.754293  
         Zn3       1.0000    0.09905   0.25000   0.25000   Biso      1.000     Zn          0.7542949999999999  
         Zn4       1.0000    0.40095   0.25000   0.75000   Biso      1.000     Zn          0.7542939999999999 