
##########################################################################
#               Crystallographic Information Format file
#               Produced by PyCifRW module
#
#  This is a CIF file.  CIF has been adopted by the International
#  Union of Crystallography as the standard for data archiving and
#  transmission.
#
#  For information on this file format, follow the CIF links at
#  http://www.iucr.org
##########################################################################

data_image0

_cell_length_a                          9.8035
_cell_length_b                          10.9423
_cell_length_c                          19.4289
_cell_angle_alpha                       85.596
_cell_angle_beta                        75.686
_cell_angle_gamma                       63.622
_symmetry_space_group_name_H-M          'P 1'
_symmetry_int_tables_number             1
loop_
  _symmetry_equiv_pos_as_xyz
         'x, y, z' 
loop_
  _atom_site_label
  _atom_site_occupancy
  _atom_site_fract_x
  _atom_site_fract_y
  _atom_site_fract_z
  _atom_site_thermal_displace_type
  _atom_site_B_iso_or_equiv
  _atom_site_type_symbol
  _atom_site_charge
         C1        1.0000    0.13630   0.64910   0.44460   Biso      1.000     C          -0.137745           
         C2        1.0000    0.63100   0.25810   0.98410   Biso      1.000     C          0.690495  
         C3        1.0000    0.59790   0.88800   0.37400   Biso      1.000     C          0.678126  
         C4        1.0000    0.26030   0.39930   0.44630   Biso      1.000     C          -0.124081           
         C5        1.0000    0.89810   0.20670   0.54670   Biso      1.000     C          0.680466  
         C6        1.0000    0.36080   0.25460   0.45940   Biso      1.000     C          0.681286  
         C7        1.0000    0.28690   0.16720   0.69630   Biso      1.000     C          -0.129118           
         C8        1.0000    0.13530   0.18300   0.71710   Biso      1.000     C          -0.12218399999999999          
         C9        1.0000    0.40210   0.11200   0.62600   Biso      1.000     C          0.678127  
         C10       1.0000    0.75450   0.11730   0.96170   Biso      1.000     C          -0.132529           
         C11       1.0000    0.12180   0.33240   0.88820   Biso      1.000     C          0.685822  
         C12       1.0000    0.73970   0.60070   0.55370   Biso      1.000     C          -0.124081           
         C13       1.0000    0.99370   0.93200   0.92090   Biso      1.000     C          -0.108474           
         C14       1.0000    0.91260   0.07440   0.93540   Biso      1.000     C          -0.10901199999999998          
         C15       1.0000    0.84450   0.73120   0.18280   Biso      1.000     C          -0.124775           
         C16       1.0000    0.87100   0.55120   0.58040   Biso      1.000     C          -0.10941300000000001          
         C17       1.0000    0.36900   0.74190   0.01590   Biso      1.000     C          0.690495  
         C18       1.0000    0.05890   0.24280   0.78630   Biso      1.000     C          -0.116577           
         C19       1.0000    0.89710   0.86850   0.93650   Biso      1.000     C          -0.12075899999999999          
         C20       1.0000    0.12900   0.44880   0.41960   Biso      1.000     C          -0.10941400000000001          
         C21       1.0000    0.10290   0.13150   0.06350   Biso      1.000     C          -0.12075899999999999          
         C22       1.0000    0.94210   0.40720   0.58120   Biso      1.000     C          -0.103744           
         C23       1.0000    0.87820   0.66760   0.11180   Biso      1.000     C          0.685823  
         C24       1.0000    0.15550   0.26880   0.81720   Biso      1.000     C          -0.12477  
         C25       1.0000    0.94110   0.75720   0.21370   Biso      1.000     C          -0.11657200000000001          
         C26       1.0000    0.24550   0.88270   0.03830   Biso      1.000     C          -0.132529           
         C27       1.0000    0.00630   0.06800   0.07910   Biso      1.000     C          -0.108474           
         C28       1.0000    0.86470   0.81700   0.28290   Biso      1.000     C          -0.122189           
         C29       1.0000    0.08740   0.92560   0.06460   Biso      1.000     C          -0.10901199999999998          
         C30       1.0000    0.63920   0.74540   0.54060   Biso      1.000     C          0.681286  
         C31       1.0000    0.86370   0.35090   0.55540   Biso      1.000     C          -0.13774  
         C32       1.0000    0.05570   0.28060   0.06750   Biso      1.000     C          0.684022  
         C33       1.0000    0.10190   0.79330   0.45330   Biso      1.000     C          0.680466  
         C34       1.0000    0.94430   0.71940   0.93250   Biso      1.000     C          0.684022  
         C35       1.0000    0.05790   0.59280   0.41880   Biso      1.000     C          -0.10373900000000001          
         C36       1.0000    0.71310   0.83280   0.30370   Biso      1.000     C          -0.129114           
         H1        1.0000    0.90850   0.60590   0.59600   Biso      1.000     H          0.135884  
         H2        1.0000    0.89850   0.11390   0.09740   Biso      1.000     H          0.136487  
         H3        1.0000    0.03220   0.35610   0.59750   Biso      1.000     H          0.13109400000000002           
         H4        1.0000    0.03930   0.86760   0.07200   Biso      1.000     H          0.132916  
         H5        1.0000    0.96780   0.64390   0.40250   Biso      1.000     H          0.13109400000000002           
         H6        1.0000    0.10150   0.88610   0.90260   Biso      1.000     H          0.136487  
         H7        1.0000    0.04450   0.73780   0.19170   Biso      1.000     H          0.134252  
         H8        1.0000    0.08800   0.15710   0.68880   Biso      1.000     H          0.134294  
         H9        1.0000    0.91200   0.84290   0.31120   Biso      1.000     H          0.134294  
         H10       1.0000    0.09150   0.39410   0.40400   Biso      1.000     H          0.135884  
         H11       1.0000    0.96070   0.13240   0.92800   Biso      1.000     H          0.132916  
         H12       1.0000    0.95550   0.26220   0.80830   Biso      1.000     H          0.134252  
         Nd1       1.0000    0.71004   0.02729   0.50041   Biso      1.000     Nd          2.15675   
         Nd2       1.0000    0.28996   0.97271   0.49959   Biso      1.000     Nd          2.156751  
         Nd3       1.0000    0.24949   0.48030   0.99082   Biso      1.000     Nd          2.2134720000000003  
         Nd4       1.0000    0.75051   0.51970   0.00918   Biso      1.000     Nd          2.2134720000000003  
         O1        1.0000    0.32780   0.65420   0.00330   Biso      1.000     O          -0.760899           
         O2        1.0000    0.16320   0.31840   0.05780   Biso      1.000     O          -0.690338           
         O3        1.0000    0.36250   0.06620   0.58240   Biso      1.000     O          -0.72201  
         O4        1.0000    0.51790   0.76940   0.52000   Biso      1.000     O          -0.6725439999999999           
         O5        1.0000    0.53300   0.11320   0.61920   Biso      1.000     O          -0.644235           
         O6        1.0000    0.49230   0.27920   0.98850   Biso      1.000     O          -0.6869970000000001           
         O7        1.0000    0.23420   0.34120   0.90390   Biso      1.000     O          -0.6853100000000001           
         O8        1.0000    0.31450   0.16950   0.44830   Biso      1.000     O          -0.681763           
         O9        1.0000    0.98080   0.88400   0.43640   Biso      1.000     O          -0.715464           
         O10       1.0000    0.19880   0.81510   0.47590   Biso      1.000     O          -0.698488           
         O11       1.0000    0.08880   0.64200   0.91930   Biso      1.000     O          -0.690826           
         O12       1.0000    0.48210   0.23060   0.48000   Biso      1.000     O          -0.6725439999999999           
         O13       1.0000    0.01350   0.62900   0.07310   Biso      1.000     O          -0.714013           
         O14       1.0000    0.83680   0.68160   0.94220   Biso      1.000     O          -0.690338           
         O15       1.0000    0.98650   0.37100   0.92690   Biso      1.000     O          -0.714013           
         O16       1.0000    0.46700   0.88680   0.38080   Biso      1.000     O          -0.644235           
         O17       1.0000    0.50770   0.72080   0.01150   Biso      1.000     O          -0.6869970000000001           
         O18       1.0000    0.76580   0.65880   0.09610   Biso      1.000     O          -0.6853100000000001           
         O19       1.0000    0.68550   0.83050   0.55170   Biso      1.000     O          -0.681764           
         O20       1.0000    0.01920   0.11600   0.56360   Biso      1.000     O          -0.715464           
         O21       1.0000    0.80120   0.18490   0.52410   Biso      1.000     O          -0.698488           
         O22       1.0000    0.91120   0.35800   0.08070   Biso      1.000     O          -0.690826           
         O23       1.0000    0.67220   0.34580   0.99670   Biso      1.000     O          -0.760899           
         O24       1.0000    0.63750   0.93380   0.41760   Biso      1.000     O          -0.72201  
         S1        1.0000    0.70100   0.47370   0.53027   Biso      1.000     S          0.175429  
         S2        1.0000    0.66230   0.77720   0.23847   Biso      1.000     S          0.172075  
         S3        1.0000    0.29560   0.01640   0.03206   Biso      1.000     S          0.17841600000000002           
         S4        1.0000    0.70440   0.98360   0.96794   Biso      1.000     S          0.17841600000000002           
         S5        1.0000    0.33770   0.22280   0.76153   Biso      1.000     S          0.172075  
         S6        1.0000    0.29900   0.52630   0.46973   Biso      1.000     S          0.17543 