
##########################################################################
#               Crystallographic Information Format file
#               Produced by PyCifRW module
#
#  This is a CIF file.  CIF has been adopted by the International
#  Union of Crystallography as the standard for data archiving and
#  transmission.
#
#  For information on this file format, follow the CIF links at
#  http://www.iucr.org
##########################################################################

data_image0

_cell_length_a                          21.54
_cell_length_b                          9.168
_cell_length_c                          23.321
_cell_angle_alpha                       90
_cell_angle_beta                        101.736
_cell_angle_gamma                       90
_symmetry_space_group_name_H-M          'P 1'
_symmetry_int_tables_number             1
loop_
  _symmetry_equiv_pos_as_xyz
         'x, y, z' 
loop_
  _atom_site_label
  _atom_site_occupancy
  _atom_site_fract_x
  _atom_site_fract_y
  _atom_site_fract_z
  _atom_site_thermal_displace_type
  _atom_site_B_iso_or_equiv
  _atom_site_type_symbol
  _atom_site_charge
         C1        1.0000    0.19356   0.37320   0.95248   Biso      1.000     C          0.568218  
         C2        1.0000    0.21890   0.76700   0.69034   Biso      1.000     C          -0.13027  
         C3        1.0000    0.28364   0.78970   0.70165   Biso      1.000     C          0.088353  
         C4        1.0000    0.32267   0.78480   0.76184   Biso      1.000     C          0.103826  
         C5        1.0000    0.31504   0.67790   0.80208   Biso      1.000     C          -0.128386           
         C6        1.0000    0.35090   0.67920   0.85862   Biso      1.000     C          -0.052136           
         C7        1.0000    0.39556   0.78800   0.87682   Biso      1.000     C          -0.117779           
         C8        1.0000    0.81183   0.67610   0.15450   Biso      1.000     C          -0.14454  
         C9        1.0000    0.40361   0.89290   0.83667   Biso      1.000     C          -0.063112           
         C10       1.0000    0.86769   0.60850   0.28061   Biso      1.000     C          -0.130683           
         C11       1.0000    0.90361   0.60710   0.33667   Biso      1.000     C          -0.063113           
         C12       1.0000    0.89556   0.71200   0.37682   Biso      1.000     C          -0.117778           
         C13       1.0000    0.36769   0.89150   0.78061   Biso      1.000     C          -0.13068  
         C14       1.0000    0.85090   0.82080   0.35862   Biso      1.000     C          -0.052136           
         C15       1.0000    0.81504   0.82210   0.30208   Biso      1.000     C          -0.128385           
         C16       1.0000    0.82267   0.71520   0.26184   Biso      1.000     C          0.103828  
         C17       1.0000    0.78364   0.71030   0.20165   Biso      1.000     C          0.088353  
         C18       1.0000    0.31183   0.82390   0.65450   Biso      1.000     C          -0.144539           
         C19       1.0000    0.71890   0.73300   0.19034   Biso      1.000     C          -0.13027  
         C20       1.0000    0.61150   0.73750   0.12456   Biso      1.000     C          0.577629  
         C21       1.0000    0.68196   0.71940   0.13424   Biso      1.000     C          -0.024625           
         C22       1.0000    0.71068   0.68280   0.08832   Biso      1.000     C          -0.109377           
         C23       1.0000    0.77588   0.66280   0.09820   Biso      1.000     C          0.024262  
         C24       1.0000    0.80644   0.62680   0.04752   Biso      1.000     C          0.568218  
         C25       1.0000    0.82267   0.28480   0.76184   Biso      1.000     C          0.103825  
         C26       1.0000    0.22412   0.33720   0.90180   Biso      1.000     C          0.02426   
         C27       1.0000    0.28932   0.31720   0.91168   Biso      1.000     C          -0.109378           
         C28       1.0000    0.31804   0.28060   0.86576   Biso      1.000     C          -0.024623           
         C29       1.0000    0.11150   0.76250   0.62456   Biso      1.000     C          0.57763   
         C30       1.0000    0.30644   0.12680   0.04752   Biso      1.000     C          0.568218  
         C31       1.0000    0.27588   0.16280   0.09820   Biso      1.000     C          0.02426   
         C32       1.0000    0.21068   0.18280   0.08832   Biso      1.000     C          -0.109378           
         C33       1.0000    0.71890   0.26700   0.69034   Biso      1.000     C          -0.13027  
         C34       1.0000    0.61150   0.26250   0.62456   Biso      1.000     C          0.577629  
         C35       1.0000    0.68196   0.28060   0.63424   Biso      1.000     C          -0.024625           
         C36       1.0000    0.81504   0.17790   0.80208   Biso      1.000     C          -0.128386           
         C37       1.0000    0.71068   0.31720   0.58832   Biso      1.000     C          -0.109377           
         C38       1.0000    0.77588   0.33720   0.59820   Biso      1.000     C          0.024261  
         C39       1.0000    0.80644   0.37320   0.54752   Biso      1.000     C          0.568218  
         C40       1.0000    0.85090   0.17920   0.85862   Biso      1.000     C          -0.052136           
         C41       1.0000    0.89556   0.28800   0.87682   Biso      1.000     C          -0.117779           
         C42       1.0000    0.90361   0.39290   0.83667   Biso      1.000     C          -0.063113           
         C43       1.0000    0.86769   0.39150   0.78061   Biso      1.000     C          -0.130679           
         C44       1.0000    0.81183   0.32390   0.65450   Biso      1.000     C          -0.144539           
         C45       1.0000    0.68817   0.82390   0.84550   Biso      1.000     C          -0.144539           
         C46       1.0000    0.38850   0.26250   0.87544   Biso      1.000     C          0.577628  
         C47       1.0000    0.31183   0.17610   0.15450   Biso      1.000     C          -0.144538           
         C48       1.0000    0.30644   0.87320   0.54752   Biso      1.000     C          0.568217  
         C49       1.0000    0.40361   0.10710   0.33667   Biso      1.000     C          -0.063115           
         C50       1.0000    0.39556   0.21200   0.37682   Biso      1.000     C          -0.117778           
         C51       1.0000    0.27588   0.83720   0.59820   Biso      1.000     C          0.024261  
         C52       1.0000    0.35090   0.32080   0.35862   Biso      1.000     C          -0.052136           
         C53       1.0000    0.21068   0.81720   0.58832   Biso      1.000     C          -0.109378           
         C54       1.0000    0.31504   0.32210   0.30208   Biso      1.000     C          -0.128385           
         C55       1.0000    0.32267   0.21520   0.26184   Biso      1.000     C          0.103825  
         C56       1.0000    0.28364   0.21030   0.20165   Biso      1.000     C          0.088353  
         C57       1.0000    0.21890   0.23300   0.19034   Biso      1.000     C          -0.13027  
         C58       1.0000    0.11150   0.23750   0.12456   Biso      1.000     C          0.57763   
         C59       1.0000    0.18196   0.21940   0.13424   Biso      1.000     C          -0.024623           
         C60       1.0000    0.18196   0.78060   0.63424   Biso      1.000     C          -0.024623           
         C61       1.0000    0.36769   0.10850   0.28061   Biso      1.000     C          -0.130679           
         C62       1.0000    0.28110   0.26700   0.80966   Biso      1.000     C          -0.13027  
         C63       1.0000    0.78364   0.28970   0.70165   Biso      1.000     C          0.088353  
         C64       1.0000    0.21636   0.28970   0.79835   Biso      1.000     C          0.088352  
         C65       1.0000    0.18817   0.32390   0.84550   Biso      1.000     C          -0.144539           
         C66       1.0000    0.19356   0.62680   0.45248   Biso      1.000     C          0.568219  
         C67       1.0000    0.22412   0.66280   0.40180   Biso      1.000     C          0.02426   
         C68       1.0000    0.69356   0.87320   0.95248   Biso      1.000     C          0.568218  
         C69       1.0000    0.72412   0.83720   0.90180   Biso      1.000     C          0.024261  
         C70       1.0000    0.78932   0.81720   0.91168   Biso      1.000     C          -0.109379           
         C71       1.0000    0.81804   0.78060   0.86576   Biso      1.000     C          -0.024623           
         C72       1.0000    0.18817   0.67610   0.34550   Biso      1.000     C          -0.144538           
         C73       1.0000    0.88850   0.76250   0.87544   Biso      1.000     C          0.577629  
         C74       1.0000    0.13231   0.60850   0.21939   Biso      1.000     C          -0.130683           
         C75       1.0000    0.38850   0.73750   0.37544   Biso      1.000     C          0.577626  
         C76       1.0000    0.78110   0.76700   0.80966   Biso      1.000     C          -0.13027  
         C77       1.0000    0.09639   0.60710   0.16333   Biso      1.000     C          -0.063112           
         C78       1.0000    0.10444   0.71200   0.12318   Biso      1.000     C          -0.117778           
         C79       1.0000    0.14910   0.82080   0.14138   Biso      1.000     C          -0.052136           
         C80       1.0000    0.71636   0.78970   0.79835   Biso      1.000     C          0.088353  
         C81       1.0000    0.18496   0.82210   0.19792   Biso      1.000     C          -0.128385           
         C82       1.0000    0.17733   0.71520   0.23816   Biso      1.000     C          0.103828  
         C83       1.0000    0.21636   0.71030   0.29835   Biso      1.000     C          0.088352  
         C84       1.0000    0.67733   0.78480   0.73816   Biso      1.000     C          0.103825  
         C85       1.0000    0.28110   0.73300   0.30966   Biso      1.000     C          -0.13027  
         C86       1.0000    0.68496   0.67790   0.69792   Biso      1.000     C          -0.128386           
         C87       1.0000    0.28932   0.68280   0.41168   Biso      1.000     C          -0.109379           
         C88       1.0000    0.64910   0.67920   0.64138   Biso      1.000     C          -0.052136           
         C89       1.0000    0.13231   0.39150   0.71939   Biso      1.000     C          -0.130684           
         C90       1.0000    0.72412   0.16280   0.40180   Biso      1.000     C          0.02426   
         C91       1.0000    0.17733   0.28480   0.73816   Biso      1.000     C          0.103828  
         C92       1.0000    0.68817   0.17610   0.34550   Biso      1.000     C          -0.144538           
         C93       1.0000    0.18496   0.17790   0.69792   Biso      1.000     C          -0.128386           
         C94       1.0000    0.63231   0.10850   0.21939   Biso      1.000     C          -0.130684           
         C95       1.0000    0.63231   0.89150   0.71939   Biso      1.000     C          -0.130681           
         C96       1.0000    0.59639   0.10710   0.16333   Biso      1.000     C          -0.063112           
         C97       1.0000    0.60444   0.21200   0.12318   Biso      1.000     C          -0.117777           
         C98       1.0000    0.14910   0.17920   0.64138   Biso      1.000     C          -0.052136           
         C99       1.0000    0.64910   0.32080   0.14138   Biso      1.000     C          -0.052136           
         C100      1.0000    0.59639   0.89290   0.66333   Biso      1.000     C          -0.063113           
         C101      1.0000    0.69356   0.12680   0.45248   Biso      1.000     C          0.568219  
         C102      1.0000    0.67733   0.21520   0.23816   Biso      1.000     C          0.103829  
         C103      1.0000    0.68496   0.32210   0.19792   Biso      1.000     C          -0.128386           
         C104      1.0000    0.10444   0.28800   0.62318   Biso      1.000     C          -0.11778  
         C105      1.0000    0.78932   0.18280   0.41168   Biso      1.000     C          -0.109378           
         C106      1.0000    0.71636   0.21030   0.29835   Biso      1.000     C          0.088352  
         C107      1.0000    0.81804   0.21940   0.36576   Biso      1.000     C          -0.024623           
         C108      1.0000    0.09639   0.39290   0.66333   Biso      1.000     C          -0.06311  
         C109      1.0000    0.78110   0.23300   0.30966   Biso      1.000     C          -0.130269           
         C110      1.0000    0.60444   0.78800   0.62318   Biso      1.000     C          -0.117777           
         C111      1.0000    0.88850   0.23750   0.37544   Biso      1.000     C          0.57763   
         C112      1.0000    0.31804   0.71940   0.36576   Biso      1.000     C          -0.024622           
         H1        1.0000    0.56620   0.96570   0.65240   Biso      1.000     H          0.120488  
         H2        1.0000    0.87380   0.46430   0.75460   Biso      1.000     H          0.120083  
         H3        1.0000    0.65500   0.60630   0.61520   Biso      1.000     H          0.113062  
         H4        1.0000    0.84500   0.10630   0.88480   Biso      1.000     H          0.113063  
         H5        1.0000    0.71460   0.60420   0.70910   Biso      1.000     H          0.111889  
         H6        1.0000    0.93380   0.46570   0.84760   Biso      1.000     H          0.120489  
         H7        1.0000    0.62620   0.96430   0.74540   Biso      1.000     H          0.120083  
         H8        1.0000    0.78540   0.10420   0.79090   Biso      1.000     H          0.111889  
         H9        1.0000    0.81370   0.82840   0.94920   Biso      1.000     H          0.121434  
         H10       1.0000    0.80060   0.74200   0.77890   Biso      1.000     H          0.124343  
         H11       1.0000    0.31370   0.32840   0.94920   Biso      1.000     H          0.121434  
         H12       1.0000    0.21460   0.10420   0.70910   Biso      1.000     H          0.111889  
         H13       1.0000    0.35550   0.83810   0.66090   Biso      1.000     H          0.136696  
         H14       1.0000    0.15500   0.10630   0.61520   Biso      1.000     H          0.113063  
         H15       1.0000    0.37380   0.96430   0.75460   Biso      1.000     H          0.120083  
         H16       1.0000    0.43380   0.96570   0.84760   Biso      1.000     H          0.120488  
         H17       1.0000    0.85550   0.33810   0.66090   Biso      1.000     H          0.136695  
         H18       1.0000    0.06620   0.46570   0.65240   Biso      1.000     H          0.120488  
         H19       1.0000    0.28540   0.60420   0.79090   Biso      1.000     H          0.111889  
         H20       1.0000    0.12620   0.46430   0.74540   Biso      1.000     H          0.120082  
         H21       1.0000    0.14450   0.33810   0.83910   Biso      1.000     H          0.136695  
         H22       1.0000    0.19940   0.74200   0.72110   Biso      1.000     H          0.124342  
         H23       1.0000    0.30060   0.24200   0.77890   Biso      1.000     H          0.124344  
         H24       1.0000    0.18630   0.82840   0.55080   Biso      1.000     H          0.121434  
         H25       1.0000    0.34500   0.60630   0.88480   Biso      1.000     H          0.113062  
         H26       1.0000    0.35550   0.16190   0.16090   Biso      1.000     H          0.136696  
         H27       1.0000    0.64450   0.83810   0.83910   Biso      1.000     H          0.136696  
         H28       1.0000    0.68630   0.32840   0.55080   Biso      1.000     H          0.121434  
         H29       1.0000    0.87380   0.53570   0.25460   Biso      1.000     H          0.120082  
         H30       1.0000    0.93380   0.53430   0.34760   Biso      1.000     H          0.120488  
         H31       1.0000    0.84500   0.89370   0.38480   Biso      1.000     H          0.113062  
         H32       1.0000    0.78540   0.89580   0.29090   Biso      1.000     H          0.111889  
         H33       1.0000    0.69940   0.75800   0.22110   Biso      1.000     H          0.124344  
         H34       1.0000    0.68630   0.67160   0.05080   Biso      1.000     H          0.121434  
         H35       1.0000    0.14450   0.66190   0.33910   Biso      1.000     H          0.136695  
         H36       1.0000    0.69940   0.24200   0.72110   Biso      1.000     H          0.124343  
         H37       1.0000    0.31370   0.67160   0.44920   Biso      1.000     H          0.121434  
         H38       1.0000    0.85550   0.66190   0.16090   Biso      1.000     H          0.136696  
         H39       1.0000    0.64450   0.16190   0.33910   Biso      1.000     H          0.136696  
         H40       1.0000    0.56620   0.03430   0.15240   Biso      1.000     H          0.120488  
         H41       1.0000    0.65500   0.39370   0.11520   Biso      1.000     H          0.113062  
         H42       1.0000    0.71460   0.39580   0.20910   Biso      1.000     H          0.111889  
         H43       1.0000    0.80060   0.25800   0.27890   Biso      1.000     H          0.124342  
         H44       1.0000    0.81370   0.17160   0.44920   Biso      1.000     H          0.121434  
         H45       1.0000    0.30060   0.75800   0.27890   Biso      1.000     H          0.124343  
         H46       1.0000    0.21460   0.89580   0.20910   Biso      1.000     H          0.111889  
         H47       1.0000    0.15500   0.89370   0.11520   Biso      1.000     H          0.113063  
         H48       1.0000    0.06620   0.53430   0.15240   Biso      1.000     H          0.120488  
         H49       1.0000    0.62620   0.03570   0.24540   Biso      1.000     H          0.120083  
         H50       1.0000    0.18630   0.17160   0.05080   Biso      1.000     H          0.121434  
         H51       1.0000    0.12620   0.53570   0.24540   Biso      1.000     H          0.120083  
         H52       1.0000    0.28540   0.39580   0.29090   Biso      1.000     H          0.111889  
         H53       1.0000    0.37380   0.03570   0.25460   Biso      1.000     H          0.120083  
         H54       1.0000    0.43380   0.03430   0.34760   Biso      1.000     H          0.120488  
         H55       1.0000    0.34500   0.39370   0.38480   Biso      1.000     H          0.113062  
         H56       1.0000    0.19940   0.25800   0.22110   Biso      1.000     H          0.124343  
         O1        1.0000    0.56600   0.33990   0.01827   Biso      1.000     O          -0.45728  
         O2        1.0000    0.49570   0.14800   0.05061   Biso      1.000     O          -0.646114           
         O3        1.0000    0.90175   0.42000   0.97909   Biso      1.000     O          -0.648184           
         O4        1.0000    0.58608   0.27440   0.66687   Biso      1.000     O          -0.369578           
         O5        1.0000    0.58040   0.23860   0.57305   Biso      1.000     O          -0.543482           
         O6        1.0000    0.77744   0.44410   0.50669   Biso      1.000     O          -0.372269           
         O7        1.0000    0.13789   0.67890   0.44897   Biso      1.000     O          -0.517483           
         O8        1.0000    0.41960   0.76140   0.42695   Biso      1.000     O          -0.543482           
         O9        1.0000    0.27744   0.94410   0.50669   Biso      1.000     O          -0.37227  
         O10       1.0000    0.77744   0.55590   0.00669   Biso      1.000     O          -0.372269           
         O11       1.0000    0.86211   0.32110   0.55103   Biso      1.000     O          -0.517483           
         O12       1.0000    0.59825   0.08000   0.02091   Biso      1.000     O          -0.648183           
         O13       1.0000    0.93400   0.16010   0.98173   Biso      1.000     O          -0.457278           
         O14       1.0000    0.72256   0.94410   0.99331   Biso      1.000     O          -0.372269           
         O15       1.0000    0.63789   0.82110   0.94897   Biso      1.000     O          -0.517483           
         O16       1.0000    0.91960   0.73860   0.92695   Biso      1.000     O          -0.543482           
         O17       1.0000    0.91392   0.77440   0.83313   Biso      1.000     O          -0.36958  
         O18       1.0000    0.59825   0.92000   0.52091   Biso      1.000     O          -0.648185           
         O19       1.0000    0.56600   0.66010   0.51827   Biso      1.000     O          -0.457279           
         O20       1.0000    0.49570   0.85200   0.55061   Biso      1.000     O          -0.646115           
         O21       1.0000    0.00430   0.35200   0.94939   Biso      1.000     O          -0.646114           
         O22       1.0000    0.91960   0.26140   0.42695   Biso      1.000     O          -0.543482           
         O23       1.0000    0.63789   0.17890   0.44897   Biso      1.000     O          -0.517484           
         O24       1.0000    0.72256   0.05590   0.49331   Biso      1.000     O          -0.372271           
         O25       1.0000    0.22256   0.55590   0.49331   Biso      1.000     O          -0.372271           
         O26       1.0000    0.91392   0.22560   0.33313   Biso      1.000     O          -0.369581           
         O27       1.0000    0.86211   0.67890   0.05103   Biso      1.000     O          -0.517483           
         O28       1.0000    0.58608   0.72560   0.16687   Biso      1.000     O          -0.36958  
         O29       1.0000    0.90175   0.58000   0.47909   Biso      1.000     O          -0.648184           
         O30       1.0000    0.09825   0.58000   0.02091   Biso      1.000     O          -0.648184           
         O31       1.0000    0.50430   0.14800   0.44939   Biso      1.000     O          -0.646115           
         O32       1.0000    0.43400   0.33990   0.48173   Biso      1.000     O          -0.457279           
         O33       1.0000    0.40175   0.08000   0.47909   Biso      1.000     O          -0.648185           
         O34       1.0000    0.08608   0.22560   0.16687   Biso      1.000     O          -0.369583           
         O35       1.0000    0.08040   0.26140   0.07305   Biso      1.000     O          -0.543482           
         O36       1.0000    0.36211   0.17890   0.05103   Biso      1.000     O          -0.517483           
         O37       1.0000    0.27744   0.05590   0.00669   Biso      1.000     O          -0.37227  
         O38       1.0000    0.06600   0.83990   0.01827   Biso      1.000     O          -0.457279           
         O39       1.0000    0.41392   0.72560   0.33313   Biso      1.000     O          -0.369574           
         O40       1.0000    0.50430   0.85200   0.94939   Biso      1.000     O          -0.646114           
         O41       1.0000    0.43400   0.66010   0.98173   Biso      1.000     O          -0.457279           
         O42       1.0000    0.58040   0.76140   0.07305   Biso      1.000     O          -0.543482           
         O43       1.0000    0.40175   0.92000   0.97909   Biso      1.000     O          -0.648184           
         O44       1.0000    0.99570   0.64800   0.05061   Biso      1.000     O          -0.646114           
         O45       1.0000    0.08040   0.73860   0.57305   Biso      1.000     O          -0.543482           
         O46       1.0000    0.13789   0.32110   0.94897   Biso      1.000     O          -0.517483           
         O47       1.0000    0.41960   0.23860   0.92695   Biso      1.000     O          -0.543482           
         O48       1.0000    0.41392   0.27440   0.83313   Biso      1.000     O          -0.369577           
         O49       1.0000    0.09825   0.42000   0.52091   Biso      1.000     O          -0.648184           
         O50       1.0000    0.06600   0.16010   0.51827   Biso      1.000     O          -0.457278           
         O51       1.0000    0.99570   0.35200   0.55061   Biso      1.000     O          -0.646113           
         O52       1.0000    0.36211   0.82110   0.55103   Biso      1.000     O          -0.517483           
         O53       1.0000    0.00430   0.64800   0.44939   Biso      1.000     O          -0.646114           
         O54       1.0000    0.93400   0.83990   0.48173   Biso      1.000     O          -0.45728  
         O55       1.0000    0.08608   0.77440   0.66687   Biso      1.000     O          -0.369582           
         O56       1.0000    0.22256   0.44410   0.99331   Biso      1.000     O          -0.372269           
         P1        1.0000    0.06281   0.69518   0.04798   Biso      1.000     P          1.203855  
         P2        1.0000    0.93719   0.69518   0.45202   Biso      1.000     P          1.203856  
         P3        1.0000    0.56281   0.80482   0.54798   Biso      1.000     P          1.203855  
         P4        1.0000    0.56281   0.19518   0.04798   Biso      1.000     P          1.203854  
         P5        1.0000    0.06281   0.30482   0.54798   Biso      1.000     P          1.203856  
         P6        1.0000    0.43719   0.19518   0.45202   Biso      1.000     P          1.203856  
         P7        1.0000    0.43719   0.80482   0.95202   Biso      1.000     P          1.203855  
         P8        1.0000    0.93719   0.30482   0.95202   Biso      1.000     P          1.203855  
         Zn1       1.0000    0.58478   0.87656   0.00414   Biso      1.000     Zn          1.041157  
         Zn2       1.0000    0.91522   0.62344   0.99586   Biso      1.000     Zn          1.041158  
         Zn3       1.0000    0.08478   0.37656   0.00414   Biso      1.000     Zn          1.041158  
         Zn4       1.0000    0.41522   0.12344   0.99586   Biso      1.000     Zn          1.041157  
         Zn5       1.0000    0.41522   0.87656   0.49586   Biso      1.000     Zn          1.041158  
         Zn6       1.0000    0.91522   0.37656   0.49586   Biso      1.000     Zn          1.041158  
         Zn7       1.0000    0.58478   0.12344   0.50414   Biso      1.000     Zn          1.041158  
         Zn8       1.0000    0.08478   0.62344   0.50414   Biso      1.000     Zn          1.041158 