
##########################################################################
#               Crystallographic Information Format file
#               Produced by PyCifRW module
#
#  This is a CIF file.  CIF has been adopted by the International
#  Union of Crystallography as the standard for data archiving and
#  transmission.
#
#  For information on this file format, follow the CIF links at
#  http://www.iucr.org
##########################################################################

data_image0

_cell_length_a                          10.239
_cell_length_b                          12.191
_cell_length_c                          13.91
_cell_angle_alpha                       94.6
_cell_angle_beta                        93.75
_cell_angle_gamma                       99.87
_symmetry_space_group_name_H-M          'P 1'
_symmetry_int_tables_number             1
loop_
  _symmetry_equiv_pos_as_xyz
         'x, y, z' 
loop_
  _atom_site_label
  _atom_site_occupancy
  _atom_site_fract_x
  _atom_site_fract_y
  _atom_site_fract_z
  _atom_site_thermal_displace_type
  _atom_site_B_iso_or_equiv
  _atom_site_type_symbol
  _atom_site_charge
         C1        1.0000    0.82030   0.41740   0.10960   Biso      1.000     C          -0.10833399999999999          
         C2        1.0000    0.73280   0.69900   0.27740   Biso      1.000     C          -0.09573  
         C3        1.0000    0.64140   0.16540   0.74240   Biso      1.000     C          -0.17163  
         C4        1.0000    0.80560   0.01150   0.02720   Biso      1.000     C          0.102147  
         C5        1.0000    0.18200   0.18000   0.27040   Biso      1.000     C          0.057742999999999996          
         C6        1.0000    0.80890   0.61330   0.12560   Biso      1.000     C          -0.162209           
         C7        1.0000    0.32120   0.17900   0.26840   Biso      1.000     C          0.05927999999999999           
         C8        1.0000    0.18510   0.27490   0.12410   Biso      1.000     C          -0.09417400000000001          
         C9        1.0000    0.68510   0.68240   0.36600   Biso      1.000     C          -0.09565  
         C10       1.0000    0.38800   0.23120   0.19310   Biso      1.000     C          -0.146918           
         C11       1.0000    0.52670   0.10600   0.33790   Biso      1.000     C          0.617088  
         C12       1.0000    0.67810   0.72350   0.87660   Biso      1.000     C          -0.089377           
         C13       1.0000    0.81460   0.89990   0.57490   Biso      1.000     C          -0.105794           
         C14       1.0000    0.19110   0.38670   0.87440   Biso      1.000     C          -0.162209           
         C15       1.0000    0.35540   0.88460   0.95220   Biso      1.000     C          0.08946599999999999           
         C16       1.0000    0.19440   0.98850   0.97280   Biso      1.000     C          0.102147  
         C17       1.0000    0.81800   0.82000   0.72960   Biso      1.000     C          0.057741999999999995          
         C18       1.0000    0.25920   0.88910   0.10390   Biso      1.000     C          0.128415  
         C19       1.0000    0.22020   0.59380   0.79880   Biso      1.000     C          -0.139181           
         C20       1.0000    0.67900   0.90490   0.57930   Biso      1.000     C          -0.09736900000000001          
         C21       1.0000    0.34840   0.81170   0.35200   Biso      1.000     C          0.110527  
         C22       1.0000    0.18540   0.10010   0.42510   Biso      1.000     C          -0.105795           
         C23       1.0000    0.32190   0.27650   0.12340   Biso      1.000     C          -0.089361           
         C24       1.0000    0.74080   0.11090   0.89610   Biso      1.000     C          0.128414  
         C25       1.0000    0.77980   0.40620   0.20120   Biso      1.000     C          -0.139174           
         C26       1.0000    0.75040   0.14210   0.79610   Biso      1.000     C          0.10795999999999999           
         C27       1.0000    0.86830   0.14890   0.75160   Biso      1.000     C          -0.169989           
         C28       1.0000    0.65030   0.14730   0.95530   Biso      1.000     C          -0.183069           
         C29       1.0000    0.65160   0.18830   0.64800   Biso      1.000     C          0.11053299999999999           
         C30       1.0000    0.83500   0.52180   0.07310   Biso      1.000     C          -0.09781000000000001          
         C31       1.0000    0.64460   0.11540   0.04780   Biso      1.000     C          0.08946699999999999           
         C32       1.0000    0.11510   0.13600   0.35070   Biso      1.000     C          -0.07657  
         C33       1.0000    0.87200   0.17340   0.65720   Biso      1.000     C          0.10814700000000001           
         C34       1.0000    0.75200   0.49980   0.25930   Biso      1.000     C          0.055031  
         C35       1.0000    0.11750   0.22910   0.19650   Biso      1.000     C          -0.145608           
         C36       1.0000    0.67150   0.57840   0.40390   Biso      1.000     C          -0.101107           
         C37       1.0000    0.69650   0.38190   0.40260   Biso      1.000     C          0.5840850000000001  
         C38       1.0000    0.81880   0.04210   0.93420   Biso      1.000     C          -0.172028           
         C39       1.0000    0.76570   0.60580   0.22080   Biso      1.000     C          0.058875  
         C40       1.0000    0.96710   0.12490   0.35490   Biso      1.000     C          0.6340640000000001  
         C41       1.0000    0.38680   0.12890   0.34300   Biso      1.000     C          -0.070609           
         C42       1.0000    0.70690   0.48890   0.35300   Biso      1.000     C          -0.046041000000000006         
         C43       1.0000    0.03290   0.87510   0.64510   Biso      1.000     C          0.634065  
         C44       1.0000    0.24960   0.85790   0.20390   Biso      1.000     C          0.107958  
         C45       1.0000    0.12800   0.82660   0.34280   Biso      1.000     C          0.10814100000000001           
         C46       1.0000    0.32100   0.09510   0.42070   Biso      1.000     C          -0.097362           
         C47       1.0000    0.88490   0.86400   0.64930   Biso      1.000     C          -0.07656900000000001          
         C48       1.0000    0.47330   0.89400   0.66210   Biso      1.000     C          0.617089  
         C49       1.0000    0.31490   0.31760   0.63400   Biso      1.000     C          -0.09565900000000001          
         C50       1.0000    0.18120   0.95790   0.06580   Biso      1.000     C          -0.172029           
         C51       1.0000    0.81490   0.72510   0.87590   Biso      1.000     C          -0.094172           
         C52       1.0000    0.13170   0.85110   0.24840   Biso      1.000     C          -0.169983           
         C53       1.0000    0.67880   0.82100   0.73160   Biso      1.000     C          0.059278  
         C54       1.0000    0.61320   0.87110   0.65700   Biso      1.000     C          -0.070603           
         C55       1.0000    0.23430   0.39420   0.77920   Biso      1.000     C          0.058870000000000006          
         C56       1.0000    0.34970   0.85270   0.04470   Biso      1.000     C          -0.183069           
         C57       1.0000    0.74440   0.81310   0.24460   Biso      1.000     C          0.576263  
         C58       1.0000    0.17970   0.58260   0.89040   Biso      1.000     C          -0.10832699999999999          
         C59       1.0000    0.16500   0.47820   0.92690   Biso      1.000     C          -0.097811           
         C60       1.0000    0.25560   0.18690   0.75540   Biso      1.000     C          0.5762619999999999  
         C61       1.0000    0.26720   0.30100   0.72260   Biso      1.000     C          -0.095719           
         C62       1.0000    0.61200   0.76880   0.80690   Biso      1.000     C          -0.146903           
         C63       1.0000    0.35860   0.83460   0.25760   Biso      1.000     C          -0.171624           
         C64       1.0000    0.29310   0.51110   0.64700   Biso      1.000     C          -0.046051999999999996         
         C65       1.0000    0.30350   0.61810   0.59740   Biso      1.000     C          0.584086  
         C66       1.0000    0.32850   0.42160   0.59610   Biso      1.000     C          -0.101097           
         C67       1.0000    0.24800   0.50020   0.74070   Biso      1.000     C          0.055036  
         C68       1.0000    0.88250   0.77090   0.80350   Biso      1.000     C          -0.145608           
         H1        1.0000    0.63210   0.69090   0.92550   Biso      1.000     H          0.10713699999999998           
         H2        1.0000    0.11880   0.98450   0.10280   Biso      1.000     H          0.131591  
         H3        1.0000    0.18070   0.31830   0.90080   Biso      1.000     H          0.111323  
         H4        1.0000    0.16220   0.64430   0.92790   Biso      1.000     H          0.100302  
         H5        1.0000    0.42330   0.79760   0.38710   Biso      1.000     H          0.107868  
         H6        1.0000    0.85970   0.69500   0.92480   Biso      1.000     H          0.105851  
         H7        1.0000    0.43870   0.83450   0.22960   Biso      1.000     H          0.126852  
         H8        1.0000    0.97300   0.76970   0.80260   Biso      1.000     H          0.11896099999999998           
         H9        1.0000    0.40640   0.80680   0.06740   Biso      1.000     H          0.13844800000000002           
         H10       1.0000    0.59360   0.19320   0.93260   Biso      1.000     H          0.13844800000000002           
         H11       1.0000    0.36170   0.42980   0.53600   Biso      1.000     H          0.131081  
         H12       1.0000    0.41670   0.85880   0.91370   Biso      1.000     H          0.09691799999999999           
         H13       1.0000    0.52070   0.76570   0.80830   Biso      1.000     H          0.110042  
         H14       1.0000    0.85700   0.92130   0.52050   Biso      1.000     H          0.12148800000000001           
         H15       1.0000    0.14240   0.03780   0.94990   Biso      1.000     H          0.097873  
         H16       1.0000    0.04780   0.82230   0.37120   Biso      1.000     H          0.103027  
         H17       1.0000    0.13660   0.47110   0.98860   Biso      1.000     H          0.09976   
         H18       1.0000    0.33900   0.25770   0.59790   Biso      1.000     H          0.11672   
         H19       1.0000    0.22960   0.66340   0.77450   Biso      1.000     H          0.114718  
         H20       1.0000    0.05510   0.86320   0.21430   Biso      1.000     H          0.134686  
         H21       1.0000    0.63360   0.93160   0.52870   Biso      1.000     H          0.125553  
         H22       1.0000    0.63830   0.57020   0.46400   Biso      1.000     H          0.131082  
         H23       1.0000    0.36790   0.30910   0.07450   Biso      1.000     H          0.107136  
         H24       1.0000    0.88120   0.01550   0.89720   Biso      1.000     H          0.131591  
         H25       1.0000    0.95220   0.17770   0.62880   Biso      1.000     H          0.10302599999999999           
         H26       1.0000    0.77040   0.33660   0.22550   Biso      1.000     H          0.11471700000000001           
         H27       1.0000    0.66100   0.74230   0.40210   Biso      1.000     H          0.11672   
         H28       1.0000    0.14030   0.30500   0.07520   Biso      1.000     H          0.105851  
         H29       1.0000    0.57670   0.20240   0.61290   Biso      1.000     H          0.107868  
         H30       1.0000    0.94490   0.13680   0.78570   Biso      1.000     H          0.134686  
         H31       1.0000    0.85760   0.96220   0.05010   Biso      1.000     H          0.097873  
         H32       1.0000    0.14300   0.07870   0.47950   Biso      1.000     H          0.12148800000000001           
         H33       1.0000    0.56130   0.16550   0.77040   Biso      1.000     H          0.126852  
         H34       1.0000    0.47930   0.23430   0.19170   Biso      1.000     H          0.110043  
         H35       1.0000    0.58330   0.14120   0.08630   Biso      1.000     H          0.09691699999999999           
         H36       1.0000    0.86340   0.52890   0.01140   Biso      1.000     H          0.09976   
         H37       1.0000    0.83780   0.35570   0.07210   Biso      1.000     H          0.100302  
         H38       1.0000    0.81930   0.68170   0.09920   Biso      1.000     H          0.111323  
         H39       1.0000    0.02700   0.23030   0.19740   Biso      1.000     H          0.11896099999999998           
         H40       1.0000    0.36640   0.06840   0.47130   Biso      1.000     H          0.125552  
         N1        1.0000    0.27780   0.95070   0.91460   Biso      1.000     N          -0.21571500000000002          
         N2        1.0000    0.72220   0.04930   0.08540   Biso      1.000     N          -0.21571500000000002          
         N3        1.0000    0.76510   0.19130   0.60400   Biso      1.000     N          -0.21810100000000002          
         N4        1.0000    0.23490   0.80870   0.39600   Biso      1.000     N          -0.2181   
         O1        1.0000    0.40870   0.90200   0.58390   Biso      1.000     O          -0.5595899999999999           
         O2        1.0000    0.67540   0.87860   0.28390   Biso      1.000     O          -0.5533060000000001           
         O3        1.0000    0.89540   0.10420   0.27690   Biso      1.000     O          -0.56286  
         O4        1.0000    0.59130   0.09800   0.41610   Biso      1.000     O          -0.5595899999999999           
         O5        1.0000    0.56950   0.09340   0.25590   Biso      1.000     O          -0.554741           
         O6        1.0000    0.60550   0.35370   0.45240   Biso      1.000     O          -0.545926           
         O7        1.0000    0.92340   0.13340   0.43720   Biso      1.000     O          -0.5521699999999999           
         O8        1.0000    0.79270   0.32770   0.39290   Biso      1.000     O          -0.57368  
         O9        1.0000    0.82340   0.84820   0.18410   Biso      1.000     O          -0.5759850000000001           
         O10       1.0000    0.32460   0.12140   0.71610   Biso      1.000     O          -0.5533060000000001           
         O11       1.0000    0.43050   0.90660   0.74410   Biso      1.000     O          -0.554743           
         O12       1.0000    0.20730   0.67230   0.60710   Biso      1.000     O          -0.57368  
         O13       1.0000    0.10460   0.89580   0.72310   Biso      1.000     O          -0.562861           
         O14       1.0000    0.39450   0.64630   0.54760   Biso      1.000     O          -0.545926           
         O15       1.0000    0.07660   0.86660   0.56280   Biso      1.000     O          -0.5521699999999999           
         O16       1.0000    0.17660   0.15180   0.81590   Biso      1.000     O          -0.5759850000000001           
         Zn1       1.0000    0.72203   0.01907   0.22823   Biso      1.000     Zn          0.8432729999999999  
         Zn2       1.0000    0.23890   0.80378   0.53952   Biso      1.000     Zn          0.848678  
         Zn3       1.0000    0.76110   0.19622   0.46048   Biso      1.000     Zn          0.848677  
         Zn4       1.0000    0.27797   0.98093   0.77177   Biso      1.000     Zn          0.8432729999999999 