
##########################################################################
#               Crystallographic Information Format file
#               Produced by PyCifRW module
#
#  This is a CIF file.  CIF has been adopted by the International
#  Union of Crystallography as the standard for data archiving and
#  transmission.
#
#  For information on this file format, follow the CIF links at
#  http://www.iucr.org
##########################################################################

data_image0

_cell_length_a                          10.239
_cell_length_b                          12.191
_cell_length_c                          13.91
_cell_angle_alpha                       94.6
_cell_angle_beta                        93.75
_cell_angle_gamma                       99.87
_symmetry_space_group_name_H-M          'P 1'
_symmetry_int_tables_number             1
loop_
  _symmetry_equiv_pos_as_xyz
         'x, y, z' 
loop_
  _atom_site_label
  _atom_site_occupancy
  _atom_site_fract_x
  _atom_site_fract_y
  _atom_site_fract_z
  _atom_site_thermal_displace_type
  _atom_site_B_iso_or_equiv
  _atom_site_type_symbol
  _atom_site_charge
         C1        1.0000    0.17820   0.22380   0.87670   Biso      1.000     C          -0.087786           
         C2        1.0000    0.97320   0.39380   0.66210   Biso      1.000     C          0.616524  
         C3        1.0000    0.68150   0.45850   0.06600   Biso      1.000     C          -0.176127           
         C4        1.0000    0.74940   0.35810   0.20380   Biso      1.000     C          0.107647  
         C5        1.0000    0.67950   0.08200   0.89010   Biso      1.000     C          -0.10703399999999999          
         C6        1.0000    0.69450   0.48820   0.97250   Biso      1.000     C          0.10386400000000001           
         C7        1.0000    0.66470   0.97840   0.92680   Biso      1.000     C          -0.095164           
         C8        1.0000    0.31470   0.40020   0.57470   Biso      1.000     C          -0.107296           
         C9        1.0000    0.69070   0.88750   0.87480   Biso      1.000     C          -0.162806           
         C10       1.0000    0.17920   0.40470   0.57880   Biso      1.000     C          -0.097812           
         C11       1.0000    0.80440   0.11790   0.59700   Biso      1.000     C          0.589058  
         C12       1.0000    0.18500   0.18210   0.36600   Biso      1.000     C          -0.095756           
         C13       1.0000    0.61510   0.63570   0.35050   Biso      1.000     C          -0.076514           
         C14       1.0000    0.24470   0.31290   0.24450   Biso      1.000     C          0.576234  
         C15       1.0000    0.15040   0.64790   0.95550   Biso      1.000     C          -0.181802           
         C16       1.0000    0.02680   0.60620   0.33790   Biso      1.000     C          0.616526  
         C17       1.0000    0.25060   0.64190   0.79620   Biso      1.000     C          0.107646  
         C18       1.0000    0.28030   0.90600   0.20090   Biso      1.000     C          -0.13775199999999999          
         C19       1.0000    0.32050   0.91800   0.10990   Biso      1.000     C          -0.107029           
         C20       1.0000    0.30550   0.51180   0.02750   Biso      1.000     C          0.10386600000000001           
         C21       1.0000    0.61760   0.72960   0.19670   Biso      1.000     C          -0.146342           
         C22       1.0000    0.79320   0.01160   0.64720   Biso      1.000     C          -0.047007           
         C23       1.0000    0.85880   0.33450   0.25770   Biso      1.000     C          -0.173726           
         C24       1.0000    0.84840   0.31210   0.35240   Biso      1.000     C          0.11320699999999999           
         C25       1.0000    0.71970   0.09400   0.79910   Biso      1.000     C          -0.137744           
         C26       1.0000    0.38240   0.27040   0.80330   Biso      1.000     C          -0.146342           
         C27       1.0000    0.73460   0.89460   0.77950   Biso      1.000     C          0.059916  
         C28       1.0000    0.11180   0.26890   0.80700   Biso      1.000     C          -0.146811           
         C29       1.0000    0.76720   0.80130   0.72310   Biso      1.000     C          -0.096859           
         C30       1.0000    0.84960   0.35210   0.04450   Biso      1.000     C          -0.181801           
         C31       1.0000    0.75530   0.68710   0.75550   Biso      1.000     C          0.576235  
         C32       1.0000    0.53290   0.37500   0.64490   Biso      1.000     C          0.634256  
         C33       1.0000    0.31450   0.22540   0.87620   Biso      1.000     C          -0.093564           
         C34       1.0000    0.31780   0.31950   0.72930   Biso      1.000     C          0.057772000000000004          
         C35       1.0000    0.81500   0.81790   0.63400   Biso      1.000     C          -0.095752           
         C36       1.0000    0.11330   0.37130   0.65720   Biso      1.000     C          -0.071265           
         C37       1.0000    0.38490   0.36430   0.64950   Biso      1.000     C          -0.076508           
         C38       1.0000    0.62780   0.32700   0.34270   Biso      1.000     C          0.10715999999999999           
         C39       1.0000    0.82870   0.92230   0.59670   Biso      1.000     C          -0.102267           
         C40       1.0000    0.63130   0.35060   0.24830   Biso      1.000     C          -0.168792           
         C41       1.0000    0.74780   0.00010   0.74070   Biso      1.000     C          0.055016999999999996          
         C42       1.0000    0.75880   0.38870   0.10370   Biso      1.000     C          0.127303  
         C43       1.0000    0.26540   0.10540   0.22050   Biso      1.000     C          0.059916  
         C44       1.0000    0.15160   0.68790   0.64760   Biso      1.000     C          0.113202  
         C45       1.0000    0.46710   0.62500   0.35510   Biso      1.000     C          0.634258  
         C46       1.0000    0.85590   0.38520   0.95270   Biso      1.000     C          0.08958200000000001           
         C47       1.0000    0.23280   0.19870   0.27690   Biso      1.000     C          -0.096854           
         C48       1.0000    0.20680   0.98840   0.35280   Biso      1.000     C          -0.047008           
         C49       1.0000    0.37220   0.67300   0.65730   Biso      1.000     C          0.10715999999999999           
         C50       1.0000    0.68220   0.68050   0.27070   Biso      1.000     C          0.057772000000000004          
         C51       1.0000    0.36870   0.64940   0.75170   Biso      1.000     C          -0.168792           
         C52       1.0000    0.14120   0.66550   0.74230   Biso      1.000     C          -0.17372100000000001          
         C53       1.0000    0.68550   0.77460   0.12380   Biso      1.000     C          -0.093566           
         C54       1.0000    0.88670   0.62870   0.34280   Biso      1.000     C          -0.071269           
         C55       1.0000    0.19560   0.88210   0.40300   Biso      1.000     C          0.58906   
         C56       1.0000    0.88820   0.73110   0.19300   Biso      1.000     C          -0.14682699999999999          
         C57       1.0000    0.17880   0.32150   0.73200   Biso      1.000     C          0.058633000000000005          
         C58       1.0000    0.68530   0.59980   0.42530   Biso      1.000     C          -0.10729100000000001          
         C59       1.0000    0.30930   0.11250   0.12520   Biso      1.000     C          -0.162827           
         C60       1.0000    0.82120   0.67850   0.26800   Biso      1.000     C          0.058634000000000006          
         C61       1.0000    0.31850   0.54150   0.93400   Biso      1.000     C          -0.17613  
         C62       1.0000    0.33530   0.02160   0.07320   Biso      1.000     C          -0.09514299999999999          
         C63       1.0000    0.82080   0.59530   0.42120   Biso      1.000     C          -0.09780900000000001          
         C64       1.0000    0.25220   0.99990   0.25930   Biso      1.000     C          0.055018  
         C65       1.0000    0.14410   0.61480   0.04730   Biso      1.000     C          0.08958200000000001           
         C66       1.0000    0.82180   0.77620   0.12330   Biso      1.000     C          -0.08777  
         C67       1.0000    0.24120   0.61130   0.89630   Biso      1.000     C          0.127303  
         C68       1.0000    0.17130   0.07770   0.40330   Biso      1.000     C          -0.102267           
         H1        1.0000    0.08160   0.63940   0.08530   Biso      1.000     H          0.095599  
         H2        1.0000    0.97950   0.73460   0.19180   Biso      1.000     H          0.110196  
         H3        1.0000    0.36380   0.02850   0.01150   Biso      1.000     H          0.099441  
         H4        1.0000    0.44560   0.63840   0.78610   Biso      1.000     H          0.13472   
         H5        1.0000    0.64270   0.57800   0.47950   Biso      1.000     H          0.12211400000000001           
         H6        1.0000    0.16130   0.24200   0.40240   Biso      1.000     H          0.117378  
         H7        1.0000    0.45220   0.67640   0.62860   Biso      1.000     H          0.103789  
         H8        1.0000    0.06130   0.66610   0.77030   Biso      1.000     H          0.127898  
         H9        1.0000    0.32010   0.18080   0.09870   Biso      1.000     H          0.11052999999999999           
         H10       1.0000    0.13350   0.43060   0.52780   Biso      1.000     H          0.12625899999999998           
         H11       1.0000    0.13750   0.06920   0.46330   Biso      1.000     H          0.130157  
         H12       1.0000    0.64080   0.80410   0.07440   Biso      1.000     H          0.105331  
         H13       1.0000    0.35800   0.46300   0.05070   Biso      1.000     H          0.097523  
         H14       1.0000    0.27110   0.83630   0.22490   Biso      1.000     H          0.11454500000000001           
         H15       1.0000    0.86650   0.56940   0.47220   Biso      1.000     H          0.12625799999999998           
         H16       1.0000    0.37990   0.51380   0.89670   Biso      1.000     H          0.13406500000000002           
         H17       1.0000    0.07660   0.70120   0.61220   Biso      1.000     H          0.10751500000000001           
         H18       1.0000    0.33810   0.85640   0.07240   Biso      1.000     H          0.09862699999999999           
         H19       1.0000    0.09440   0.69450   0.93320   Biso      1.000     H          0.13891900000000001           
         H20       1.0000    0.86800   0.80890   0.07440   Biso      1.000     H          0.106054  
         H21       1.0000    0.52720   0.73130   0.19770   Biso      1.000     H          0.120077  
         H22       1.0000    0.72890   0.16370   0.77510   Biso      1.000     H          0.114544  
         H23       1.0000    0.92340   0.29880   0.38780   Biso      1.000     H          0.10751500000000001           
         H24       1.0000    0.90560   0.30550   0.06680   Biso      1.000     H          0.13891900000000001           
         H25       1.0000    0.67990   0.81920   0.90130   Biso      1.000     H          0.110529  
         H26       1.0000    0.86250   0.93080   0.53670   Biso      1.000     H          0.130158  
         H27       1.0000    0.35920   0.19590   0.92560   Biso      1.000     H          0.105332  
         H28       1.0000    0.62010   0.48620   0.10330   Biso      1.000     H          0.13406500000000002           
         H29       1.0000    0.02050   0.26540   0.80820   Biso      1.000     H          0.110195  
         H30       1.0000    0.64200   0.53700   0.94930   Biso      1.000     H          0.097523  
         H31       1.0000    0.66190   0.14360   0.92760   Biso      1.000     H          0.09862699999999999           
         H32       1.0000    0.13200   0.19110   0.92560   Biso      1.000     H          0.106056  
         H33       1.0000    0.93870   0.33390   0.22970   Biso      1.000     H          0.127898  
         H34       1.0000    0.63620   0.97150   0.98850   Biso      1.000     H          0.09944299999999999           
         H35       1.0000    0.91840   0.36060   0.91470   Biso      1.000     H          0.095598  
         H36       1.0000    0.55440   0.36160   0.21390   Biso      1.000     H          0.13472   
         H37       1.0000    0.47280   0.26870   0.80230   Biso      1.000     H          0.120077  
         H38       1.0000    0.83870   0.75800   0.59760   Biso      1.000     H          0.117378  
         H39       1.0000    0.54780   0.32360   0.37140   Biso      1.000     H          0.103789  
         H40       1.0000    0.35730   0.42200   0.52050   Biso      1.000     H          0.12211500000000002           
         N1        1.0000    0.22220   0.54940   0.08540   Biso      1.000     N          -0.214943           
         N2        1.0000    0.77780   0.45060   0.91460   Biso      1.000     N          -0.214943           
         N3        1.0000    0.73490   0.30860   0.39580   Biso      1.000     N          -0.220676           
         N4        1.0000    0.26510   0.69140   0.60420   Biso      1.000     N          -0.220676           
         O1        1.0000    0.17530   0.37840   0.28350   Biso      1.000     O          -0.554017           
         O2        1.0000    0.70740   0.17190   0.60690   Biso      1.000     O          -0.580163           
         O3        1.0000    0.60460   0.39590   0.72310   Biso      1.000     O          -0.565934           
         O4        1.0000    0.90870   0.40200   0.58380   Biso      1.000     O          -0.560463           
         O5        1.0000    0.82470   0.62160   0.71650   Biso      1.000     O          -0.554017           
         O6        1.0000    0.93060   0.40620   0.74400   Biso      1.000     O          -0.553289           
         O7        1.0000    0.67630   0.65160   0.81570   Biso      1.000     O          -0.5756399999999999           
         O8        1.0000    0.89460   0.14660   0.54760   Biso      1.000     O          -0.5420050000000001           
         O9        1.0000    0.57640   0.36700   0.56290   Biso      1.000     O          -0.5486310000000001           
         O10       1.0000    0.06940   0.59380   0.25600   Biso      1.000     O          -0.55329  
         O11       1.0000    0.42360   0.63300   0.43710   Biso      1.000     O          -0.548632           
         O12       1.0000    0.10540   0.85340   0.45240   Biso      1.000     O          -0.5420050000000001           
         O13       1.0000    0.39540   0.60410   0.27690   Biso      1.000     O          -0.5659350000000001           
         O14       1.0000    0.29260   0.82810   0.39310   Biso      1.000     O          -0.580163           
         O15       1.0000    0.32370   0.34840   0.18430   Biso      1.000     O          -0.575639           
         O16       1.0000    0.09130   0.59800   0.41620   Biso      1.000     O          -0.560463           
         Zn1       1.0000    0.77798   0.48091   0.77175   Biso      1.000     Zn          0.843774  
         Zn2       1.0000    0.22202   0.51909   0.22825   Biso      1.000     Zn          0.843774  
         Zn3       1.0000    0.73892   0.30381   0.53952   Biso      1.000     Zn          0.84754   
         Zn4       1.0000    0.26108   0.69619   0.46048   Biso      1.000     Zn          0.847541 