
##########################################################################
#               Crystallographic Information Format file
#               Produced by PyCifRW module
#
#  This is a CIF file.  CIF has been adopted by the International
#  Union of Crystallography as the standard for data archiving and
#  transmission.
#
#  For information on this file format, follow the CIF links at
#  http://www.iucr.org
##########################################################################

data_image0

_cell_length_a                          9.806
_cell_length_b                          9.998
_cell_length_c                          10.674
_cell_angle_alpha                       99.98
_cell_angle_beta                        111.38
_cell_angle_gamma                       108.56
_symmetry_space_group_name_H-M          'P 1'
_symmetry_int_tables_number             1
loop_
  _symmetry_equiv_pos_as_xyz
         'x, y, z' 
loop_
  _atom_site_label
  _atom_site_occupancy
  _atom_site_fract_x
  _atom_site_fract_y
  _atom_site_fract_z
  _atom_site_thermal_displace_type
  _atom_site_B_iso_or_equiv
  _atom_site_type_symbol
  _atom_site_charge
         C1        1.0000    0.63560   0.98410   0.58710   Biso      1.000     C          -0.01663  
         C2        1.0000    0.25510   0.19890   0.90690   Biso      1.000     C          0.623396  
         C3        1.0000    0.01080   0.40880   0.08460   Biso      1.000     C          -0.013262           
         C4        1.0000    0.21800   0.03300   0.31830   Biso      1.000     C          0.603263  
         C5        1.0000    0.48910   0.38760   0.89590   Biso      1.000     C          -0.107918           
         C6        1.0000    0.78200   0.96700   0.68170   Biso      1.000     C          0.611403  
         C7        1.0000    0.51090   0.61240   0.10410   Biso      1.000     C          -0.110088           
         C8        1.0000    0.91380   0.34680   0.93870   Biso      1.000     C          -0.098577           
         C9        1.0000    0.60490   0.53160   0.93990   Biso      1.000     C          -0.100264           
         C10       1.0000    0.98400   0.69040   0.82560   Biso      1.000     C          0.590469  
         C11       1.0000    0.38240   0.35520   0.95540   Biso      1.000     C          -0.026698           
         C12       1.0000    0.74490   0.80110   0.09310   Biso      1.000     C          0.616454  
         C13       1.0000    0.54300   0.02660   0.64350   Biso      1.000     C          -0.106198           
         C14       1.0000    0.59160   0.95750   0.44210   Biso      1.000     C          -0.116911           
         C15       1.0000    0.01600   0.30960   0.17440   Biso      1.000     C          0.584334  
         C16       1.0000    0.45700   0.97340   0.35650   Biso      1.000     C          -0.106501           
         C17       1.0000    0.08620   0.65320   0.06130   Biso      1.000     C          -0.096978           
         C18       1.0000    0.36440   0.01590   0.41290   Biso      1.000     C          -0.014413           
         C19       1.0000    0.39510   0.46840   0.06010   Biso      1.000     C          -0.099487           
         C20       1.0000    0.40840   0.04250   0.55790   Biso      1.000     C          -0.122267           
         C21       1.0000    0.90350   0.43700   0.85410   Biso      1.000     C          -0.098585           
         C22       1.0000    0.09650   0.56300   0.14590   Biso      1.000     C          -0.099742           
         C23       1.0000    0.98920   0.59120   0.91540   Biso      1.000     C          -0.012402           
         C24       1.0000    0.61760   0.64480   0.04460   Biso      1.000     C          -0.025772           
         H1        1.0000    0.32530   0.44760   0.10120   Biso      1.000     H          0.112504  
         H2        1.0000    0.14480   0.75610   0.10240   Biso      1.000     H          0.114126  
         H3        1.0000    0.85520   0.24390   0.89760   Biso      1.000     H          0.113785  
         H4        1.0000    0.83930   0.39450   0.75620   Biso      1.000     H          0.12254   
         H5        1.0000    0.16070   0.60550   0.24380   Biso      1.000     H          0.122108  
         H6        1.0000    0.51750   0.68780   0.17370   Biso      1.000     H          0.116786  
         H7        1.0000    0.42820   0.95540   0.25990   Biso      1.000     H          0.120197  
         H8        1.0000    0.48250   0.31220   0.82630   Biso      1.000     H          0.117015  
         H9        1.0000    0.65290   0.92910   0.40330   Biso      1.000     H          0.111848  
         H10       1.0000    0.67470   0.55240   0.89880   Biso      1.000     H          0.112551  
         H11       1.0000    0.57180   0.04460   0.74010   Biso      1.000     H          0.119952  
         H12       1.0000    0.34710   0.07090   0.59670   Biso      1.000     H          0.110187  
         Mn1       1.0000    0.07009   0.88684   0.70196   Biso      1.000     Mn          1.073768  
         Mn2       1.0000    0.00000   0.00000   0.00000   Biso      1.000     Mn          1.097487  
         Mn3       1.0000    0.92991   0.11316   0.29804   Biso      1.000     Mn          0.926999  
         O1        1.0000    0.12110   0.04350   0.36892   Biso      1.000     O          -0.562986           
         O2        1.0000    0.24580   0.10422   0.80589   Biso      1.000     O          -0.581841           
         O3        1.0000    0.80060   0.96501   0.80326   Biso      1.000     O          -0.55641  
         O4        1.0000    0.83142   0.82602   0.03041   Biso      1.000     O          -0.556921           
         O5        1.0000    0.94489   0.16831   0.11155   Biso      1.000     O          -0.564101           
         O6        1.0000    0.92120   0.63848   0.69279   Biso      1.000     O          -0.540529           
         O7        1.0000    0.75420   0.89578   0.19411   Biso      1.000     O          -0.548031           
         O8        1.0000    0.19940   0.03499   0.19674   Biso      1.000     O          -0.551546           
         O9        1.0000    0.16858   0.17398   0.96959   Biso      1.000     O          -0.560144           
         O10       1.0000    0.87890   0.95650   0.63108   Biso      1.000     O          -0.599563           
         O11       1.0000    0.07880   0.36152   0.30721   Biso      1.000     O          -0.522712           
         O12       1.0000    0.05511   0.83169   0.88845   Biso      1.000     O          -0.603695 