
##########################################################################
#               Crystallographic Information Format file
#               Produced by PyCifRW module
#
#  This is a CIF file.  CIF has been adopted by the International
#  Union of Crystallography as the standard for data archiving and
#  transmission.
#
#  For information on this file format, follow the CIF links at
#  http://www.iucr.org
##########################################################################

data_image0

_cell_length_a                          14.883
_cell_length_b                          16.795
_cell_length_c                          17.49
_cell_angle_alpha                       93.192
_cell_angle_beta                        114.063
_cell_angle_gamma                       103.782
_symmetry_space_group_name_H-M          'P 1'
_symmetry_int_tables_number             1
loop_
  _symmetry_equiv_pos_as_xyz
         'x, y, z' 
loop_
  _atom_site_label
  _atom_site_occupancy
  _atom_site_fract_x
  _atom_site_fract_y
  _atom_site_fract_z
  _atom_site_thermal_displace_type
  _atom_site_B_iso_or_equiv
  _atom_site_type_symbol
  _atom_site_charge
         C1        1.0000    0.69250   0.73530   0.69430   Biso      1.000     C          -0.106018           
         C2        1.0000    0.78940   0.98750   0.67600   Biso      1.000     C          -0.09367  
         C3        1.0000    0.88400   0.97810   0.69090   Biso      1.000     C          -0.009963           
         C4        1.0000    0.92140   0.98560   0.62010   Biso      1.000     C          0.667148  
         C5        1.0000    0.73780   0.60420   0.86630   Biso      1.000     C          0.590987  
         C6        1.0000    0.56450   0.60200   0.63620   Biso      1.000     C          -0.084198           
         C7        1.0000    0.60470   0.57740   0.71580   Biso      1.000     C          -0.078803           
         C8        1.0000    0.68850   0.63190   0.78460   Biso      1.000     C          -0.003232           
         C9        1.0000    0.73450   0.71220   0.77460   Biso      1.000     C          -0.090961           
         C10       1.0000    0.31150   0.36810   0.21540   Biso      1.000     C          -0.003232           
         C11       1.0000    0.61010   0.68050   0.62600   Biso      1.000     C          -0.067104           
         C12       1.0000    0.30540   0.75930   0.51160   Biso      1.000     C          -0.087515           
         C13       1.0000    0.37380   0.71880   0.50620   Biso      1.000     C          -0.091277           
         C14       1.0000    0.47360   0.76320   0.52790   Biso      1.000     C          -0.060158           
         C15       1.0000    0.50490   0.84810   0.55430   Biso      1.000     C          -0.102128           
         C16       1.0000    0.43480   0.88730   0.55950   Biso      1.000     C          -0.095447           
         C17       1.0000    0.33700   0.84320   0.53990   Biso      1.000     C          0.004476  
         C18       1.0000    0.26360   0.88490   0.55240   Biso      1.000     C          0.599354  
         C19       1.0000    0.06680   0.49940   0.17280   Biso      1.000     C          0.664613  
         C20       1.0000    0.07230   0.51050   0.39320   Biso      1.000     C          -0.109077           
         C21       1.0000    0.03680   0.50740   0.30400   Biso      1.000     C          -0.095219           
         C22       1.0000    0.10340   0.50220   0.26900   Biso      1.000     C          -0.021588           
         C23       1.0000    0.20110   0.49830   0.31810   Biso      1.000     C          -0.084152           
         C24       1.0000    0.23600   0.50030   0.40590   Biso      1.000     C          -0.102605           
         C25       1.0000    0.16960   0.50690   0.44170   Biso      1.000     C          -0.066852           
         C26       1.0000    0.25210   0.28730   0.59590   Biso      1.000     C          -0.065971           
         C27       1.0000    0.27240   0.37110   0.59110   Biso      1.000     C          -0.093952           
         C28       1.0000    0.18950   0.40340   0.56330   Biso      1.000     C          -0.061653           
         C29       1.0000    0.08910   0.35520   0.53970   Biso      1.000     C          -0.104788           
         C30       1.0000    0.07210   0.27110   0.54530   Biso      1.000     C          -0.107002           
         C31       1.0000    0.75890   0.98450   0.74120   Biso      1.000     C          -0.105845           
         C32       1.0000    0.15370   0.23690   0.57250   Biso      1.000     C          -0.01869  
         C33       1.0000    0.82350   0.97280   0.81990   Biso      1.000     C          -0.058508           
         C34       1.0000    0.94750   0.96470   0.76870   Biso      1.000     C          -0.085801           
         C35       1.0000    0.38990   0.31950   0.37400   Biso      1.000     C          -0.067107           
         C36       1.0000    0.69460   0.24070   0.48840   Biso      1.000     C          -0.087515           
         C37       1.0000    0.62620   0.28120   0.49380   Biso      1.000     C          -0.091277           
         C38       1.0000    0.52640   0.23680   0.47210   Biso      1.000     C          -0.060158           
         C39       1.0000    0.49510   0.15190   0.44570   Biso      1.000     C          -0.102128           
         C40       1.0000    0.56520   0.11270   0.44050   Biso      1.000     C          -0.095447           
         C41       1.0000    0.66300   0.15680   0.46010   Biso      1.000     C          0.004476  
         C42       1.0000    0.73640   0.11510   0.44760   Biso      1.000     C          0.599354  
         C43       1.0000    0.93320   0.50060   0.82720   Biso      1.000     C          0.664613  
         C44       1.0000    0.92770   0.48950   0.60680   Biso      1.000     C          -0.109077           
         C45       1.0000    0.96320   0.49260   0.69600   Biso      1.000     C          -0.095219           
         C46       1.0000    0.89660   0.49780   0.73100   Biso      1.000     C          -0.021588           
         C47       1.0000    0.79890   0.50170   0.68190   Biso      1.000     C          -0.084152           
         C48       1.0000    0.76400   0.49970   0.59410   Biso      1.000     C          -0.102605           
         C49       1.0000    0.83040   0.49310   0.55830   Biso      1.000     C          -0.066852           
         C50       1.0000    0.74790   0.71270   0.40410   Biso      1.000     C          -0.065971           
         C51       1.0000    0.72760   0.62890   0.40890   Biso      1.000     C          -0.093952           
         C52       1.0000    0.81050   0.59660   0.43670   Biso      1.000     C          -0.061653           
         C53       1.0000    0.91090   0.64480   0.46030   Biso      1.000     C          -0.104788           
         C54       1.0000    0.92790   0.72890   0.45470   Biso      1.000     C          -0.107002           
         C55       1.0000    0.84630   0.76310   0.42750   Biso      1.000     C          -0.01869  
         C56       1.0000    0.86310   0.85590   0.42470   Biso      1.000     C          0.650315  
         C57       1.0000    0.86580   0.35450   0.97050   Biso      1.000     C          0.642343  
         C58       1.0000    0.91410   0.14160   0.96740   Biso      1.000     C          -0.100756           
         C59       1.0000    0.93210   0.22780   0.98170   Biso      1.000     C          -0.096985           
         C60       1.0000    0.84920   0.26090   0.96060   Biso      1.000     C          -0.022461           
         C61       1.0000    0.74890   0.20640   0.92720   Biso      1.000     C          -0.076692           
         C62       1.0000    0.73090   0.12120   0.91180   Biso      1.000     C          -0.101983           
         C63       1.0000    0.81320   0.09020   0.93070   Biso      1.000     C          -0.051703           
         C64       1.0000    0.91830   0.96260   0.83240   Biso      1.000     C          -0.092521           
         C65       1.0000    0.13690   0.14410   0.57530   Biso      1.000     C          0.650315  
         C66       1.0000    0.13420   0.64550   0.02950   Biso      1.000     C          0.642343  
         C67       1.0000    0.08590   0.85840   0.03260   Biso      1.000     C          -0.100755           
         C68       1.0000    0.26220   0.39580   0.13370   Biso      1.000     C          0.590987  
         C69       1.0000    0.43550   0.39800   0.36380   Biso      1.000     C          -0.084197           
         C70       1.0000    0.39530   0.42260   0.28420   Biso      1.000     C          -0.078803           
         C71       1.0000    0.30750   0.26470   0.30570   Biso      1.000     C          -0.106016           
         C72       1.0000    0.07860   0.01440   0.37990   Biso      1.000     C          0.667148  
         C73       1.0000    0.11600   0.02190   0.30910   Biso      1.000     C          -0.009969           
         C74       1.0000    0.21060   0.01250   0.32400   Biso      1.000     C          -0.093666           
         C75       1.0000    0.24110   0.01550   0.25880   Biso      1.000     C          -0.105845           
         C76       1.0000    0.26550   0.28780   0.22540   Biso      1.000     C          -0.090961           
         C77       1.0000    0.08170   0.03740   0.16760   Biso      1.000     C          -0.092539           
         C78       1.0000    0.05250   0.03530   0.23130   Biso      1.000     C          -0.085784           
         C79       1.0000    0.18680   0.90980   0.06930   Biso      1.000     C          -0.05171  
         C80       1.0000    0.06790   0.77220   0.01830   Biso      1.000     C          -0.096985           
         C81       1.0000    0.15080   0.73910   0.03940   Biso      1.000     C          -0.022461           
         C82       1.0000    0.25110   0.79360   0.07280   Biso      1.000     C          -0.076693           
         C83       1.0000    0.17650   0.02720   0.18010   Biso      1.000     C          -0.058505           
         C84       1.0000    0.26910   0.87880   0.08820   Biso      1.000     C          -0.101976           
         H1        1.0000    0.24440   0.49430   0.29290   Biso      1.000     H          0.120488  
         H2        1.0000    0.97030   0.50880   0.27020   Biso      1.000     H          0.129212  
         H3        1.0000    0.02920   0.51500   0.41860   Biso      1.000     H          0.132635  
         H4        1.0000    0.57210   0.87870   0.56840   Biso      1.000     H          0.117196  
         H5        1.0000    0.30190   0.49720   0.43930   Biso      1.000     H          0.126113  
         H6        1.0000    0.35230   0.66160   0.48780   Biso      1.000     H          0.110545  
         H7        1.0000    0.23760   0.72930   0.49590   Biso      1.000     H          0.121728  
         H8        1.0000    0.45530   0.94460   0.57670   Biso      1.000     H          0.122296  
         H9        1.0000    0.30650   0.26410   0.61560   Biso      1.000     H          0.127487  
         H10       1.0000    0.00600   0.23770   0.53080   Biso      1.000     H          0.119033  
         H11       1.0000    0.03480   0.37860   0.52060   Biso      1.000     H          0.131177  
         H12       1.0000    0.03120   0.88120   0.01770   Biso      1.000     H          0.130563  
         H13       1.0000    0.00110   0.73720   0.99490   Biso      1.000     H          0.123547  
         H14       1.0000    0.30630   0.77170   0.08480   Biso      1.000     H          0.127799  
         H15       1.0000    0.33560   0.91430   0.11090   Biso      1.000     H          0.136481  
         H16       1.0000    0.98930   0.04290   0.22250   Biso      1.000     H          0.121505  
         H17       1.0000    0.03790   0.04560   0.11470   Biso      1.000     H          0.119387  
         H18       1.0000    0.30520   0.00970   0.26820   Biso      1.000     H          0.121836  
         H19       1.0000    0.25370   0.00420   0.37720   Biso      1.000     H          0.12867   
         H20       1.0000    0.33870   0.40420   0.60580   Biso      1.000     H          0.134026  
         H21       1.0000    0.72050   0.78840   0.68690   Biso      1.000     H          0.112887  
         H22       1.0000    0.50790   0.56600   0.59070   Biso      1.000     H          0.125611  
         H23       1.0000    0.57540   0.52460   0.72280   Biso      1.000     H          0.133637  
         H24       1.0000    0.49210   0.43400   0.40930   Biso      1.000     H          0.125611  
         H25       1.0000    0.42460   0.47540   0.27720   Biso      1.000     H          0.133637  
         H26       1.0000    0.20910   0.25140   0.18010   Biso      1.000     H          0.130173  
         H27       1.0000    0.27950   0.21160   0.31310   Biso      1.000     H          0.112887  
         H28       1.0000    0.76240   0.27070   0.50410   Biso      1.000     H          0.121728  
         H29       1.0000    0.64770   0.33840   0.51220   Biso      1.000     H          0.110545  
         H30       1.0000    0.42790   0.12130   0.43160   Biso      1.000     H          0.117196  
         H31       1.0000    0.54470   0.05540   0.42330   Biso      1.000     H          0.122296  
         H32       1.0000    0.97080   0.48500   0.58140   Biso      1.000     H          0.132635  
         H33       1.0000    0.02970   0.49120   0.72980   Biso      1.000     H          0.129212  
         H34       1.0000    0.75560   0.50570   0.70710   Biso      1.000     H          0.120488  
         H35       1.0000    0.69810   0.50280   0.56070   Biso      1.000     H          0.126113  
         H36       1.0000    0.69350   0.73590   0.38440   Biso      1.000     H          0.127487  
         H37       1.0000    0.66130   0.59580   0.39420   Biso      1.000     H          0.134026  
         H38       1.0000    0.96520   0.62140   0.47940   Biso      1.000     H          0.131177  
         H39       1.0000    0.99400   0.76230   0.46920   Biso      1.000     H          0.119033  
         H40       1.0000    0.96880   0.11880   0.98230   Biso      1.000     H          0.130563  
         H41       1.0000    0.99890   0.26280   0.00510   Biso      1.000     H          0.123547  
         H42       1.0000    0.69370   0.22830   0.91520   Biso      1.000     H          0.127799  
         H43       1.0000    0.01070   0.95710   0.77750   Biso      1.000     H          0.121506  
         H44       1.0000    0.96210   0.95440   0.88530   Biso      1.000     H          0.119386  
         H45       1.0000    0.69480   0.99030   0.73180   Biso      1.000     H          0.121836  
         H46       1.0000    0.74630   0.99580   0.62280   Biso      1.000     H          0.128671  
         H47       1.0000    0.79090   0.74860   0.81990   Biso      1.000     H          0.130173  
         H48       1.0000    0.66440   0.08570   0.88910   Biso      1.000     H          0.136481  
         Nd1       1.0000    0.12450   0.96545   0.57907   Biso      1.000     Nd          2.080074  
         Nd2       1.0000    0.87389   0.53489   0.99633   Biso      1.000     Nd          2.078354  
         Nd3       1.0000    0.87550   0.03455   0.42093   Biso      1.000     Nd          2.080074  
         Nd4       1.0000    0.12611   0.46511   0.00367   Biso      1.000     Nd          2.078354  
         O1        1.0000    0.82490   0.65110   0.92150   Biso      1.000     O          -0.683148           
         O2        1.0000    0.69860   0.53430   0.87940   Biso      1.000     O          -0.636057           
         O3        1.0000    0.86210   0.99750   0.55080   Biso      1.000     O          -0.604837           
         O4        1.0000    0.01240   0.98160   0.64270   Biso      1.000     O          -0.72586  
         O5        1.0000    0.86590   0.95460   0.97790   Biso      1.000     O          -0.52522  
         O6        1.0000    0.68240   0.94180   0.87650   Biso      1.000     O          -0.519965           
         O7        1.0000    0.79110   0.38190   0.96360   Biso      1.000     O          -0.610358           
         O8        1.0000    0.95300   0.40180   0.98670   Biso      1.000     O          -0.746298           
         O9        1.0000    0.95300   0.90380   0.46590   Biso      1.000     O          -0.758303           
         O10       1.0000    0.78960   0.88100   0.38140   Biso      1.000     O          -0.596191           
         O11       1.0000    0.68000   0.45020   0.40490   Biso      1.000     O          -0.519492           
         O12       1.0000    0.85700   0.45690   0.42370   Biso      1.000     O          -0.529292           
         O13       1.0000    0.02490   0.49700   0.86590   Biso      1.000     O          -0.71685  
         O14       1.0000    0.87120   0.50550   0.85620   Biso      1.000     O          -0.612634           
         O15       1.0000    0.83090   0.15050   0.48410   Biso      1.000     O          -0.653533           
         O16       1.0000    0.70220   0.04570   0.39950   Biso      1.000     O          -0.660287           
         O17       1.0000    0.35390   0.22920   0.47830   Biso      1.000     O          -0.523747           
         O18       1.0000    0.49210   0.36400   0.53730   Biso      1.000     O          -0.527689           
         O19       1.0000    0.50790   0.63600   0.46270   Biso      1.000     O          -0.527689           
         O20       1.0000    0.64610   0.77080   0.52170   Biso      1.000     O          -0.523747           
         O21       1.0000    0.29780   0.95430   0.60050   Biso      1.000     O          -0.660287           
         O22       1.0000    0.16910   0.84950   0.51590   Biso      1.000     O          -0.653533           
         O23       1.0000    0.13790   0.00250   0.44920   Biso      1.000     O          -0.604837           
         O24       1.0000    0.98760   0.01840   0.35730   Biso      1.000     O          -0.72586  
         O25       1.0000    0.17510   0.34890   0.07850   Biso      1.000     O          -0.683148           
         O26       1.0000    0.31760   0.05820   0.12350   Biso      1.000     O          -0.519965           
         O27       1.0000    0.20890   0.61810   0.03640   Biso      1.000     O          -0.610358           
         O28       1.0000    0.04700   0.59820   0.01330   Biso      1.000     O          -0.746298           
         O29       1.0000    0.13410   0.04540   0.02210   Biso      1.000     O          -0.52522  
         O30       1.0000    0.21040   0.11900   0.61860   Biso      1.000     O          -0.596191           
         O31       1.0000    0.32000   0.54980   0.59510   Biso      1.000     O          -0.519492           
         O32       1.0000    0.14300   0.54310   0.57630   Biso      1.000     O          -0.529292           
         O33       1.0000    0.97510   0.50300   0.13410   Biso      1.000     O          -0.71685  
         O34       1.0000    0.12880   0.49450   0.14380   Biso      1.000     O          -0.612634           
         O35       1.0000    0.04700   0.09620   0.53410   Biso      1.000     O          -0.758303           
         O36       1.0000    0.30140   0.46570   0.12060   Biso      1.000     O          -0.636057           
         S1        1.0000    0.43710   0.28920   0.47426   Biso      1.000     S          0.967695  
         S2        1.0000    0.78900   0.48967   0.44720   Biso      1.000     S          0.953862  
         S3        1.0000    0.79170   0.98070   0.90682   Biso      1.000     S          0.941783  
         S4        1.0000    0.56290   0.71080   0.52574   Biso      1.000     S          0.967695  
         S5        1.0000    0.21100   0.51033   0.55280   Biso      1.000     S          0.953862  
         S6        1.0000    0.20830   0.01930   0.09318   Biso      1.000     S          0.941784 