
##########################################################################
#               Crystallographic Information Format file
#               Produced by PyCifRW module
#
#  This is a CIF file.  CIF has been adopted by the International
#  Union of Crystallography as the standard for data archiving and
#  transmission.
#
#  For information on this file format, follow the CIF links at
#  http://www.iucr.org
##########################################################################

data_image0

_cell_length_a                          6.724
_cell_length_b                          14.096
_cell_length_c                          23.984
_cell_angle_alpha                       90
_cell_angle_beta                        90
_cell_angle_gamma                       90
_symmetry_space_group_name_H-M          'P 1'
_symmetry_int_tables_number             1
loop_
  _symmetry_equiv_pos_as_xyz
         'x, y, z' 
loop_
  _atom_site_label
  _atom_site_occupancy
  _atom_site_fract_x
  _atom_site_fract_y
  _atom_site_fract_z
  _atom_site_thermal_displace_type
  _atom_site_B_iso_or_equiv
  _atom_site_type_symbol
  _atom_site_charge
         C1        1.0000    0.85960   0.70350   0.00860   Biso      1.000     C          0.517417  
         C2        1.0000    0.64040   0.20350   0.50860   Biso      1.000     C          0.517417  
         C3        1.0000    0.97550   0.10890   0.23250   Biso      1.000     C          0.217128  
         C4        1.0000    0.94340   0.06640   0.28760   Biso      1.000     C          0.158847  
         C5        1.0000    0.98480   0.97310   0.26620   Biso      1.000     C          0.204044  
         C6        1.0000    0.01060   0.01290   0.20950   Biso      1.000     C          0.163004  
         C7        1.0000    0.14040   0.29650   0.99140   Biso      1.000     C          0.517417  
         C8        1.0000    0.97550   0.60890   0.26750   Biso      1.000     C          0.217128  
         C9        1.0000    0.51060   0.48710   0.29050   Biso      1.000     C          0.163005  
         C10       1.0000    0.94340   0.56640   0.21240   Biso      1.000     C          0.158847  
         C11       1.0000    0.01060   0.51290   0.29050   Biso      1.000     C          0.163004  
         C12       1.0000    0.14040   0.79650   0.50860   Biso      1.000     C          0.517417  
         C13       1.0000    0.47550   0.89110   0.23250   Biso      1.000     C          0.217128  
         C14       1.0000    0.44340   0.93360   0.28760   Biso      1.000     C          0.158847  
         C15       1.0000    0.48480   0.02690   0.26620   Biso      1.000     C          0.204045  
         C16       1.0000    0.51060   0.98710   0.20950   Biso      1.000     C          0.163004  
         C17       1.0000    0.64040   0.70350   0.99140   Biso      1.000     C          0.517417  
         C18       1.0000    0.98480   0.47310   0.23380   Biso      1.000     C          0.204044  
         C19       1.0000    0.48480   0.52690   0.23380   Biso      1.000     C          0.204044  
         C20       1.0000    0.44340   0.43360   0.21240   Biso      1.000     C          0.158847  
         C21       1.0000    0.47550   0.39110   0.26750   Biso      1.000     C          0.217127  
         C22       1.0000    0.98940   0.98710   0.79050   Biso      1.000     C          0.163004  
         C23       1.0000    0.01520   0.02690   0.73380   Biso      1.000     C          0.204044  
         C24       1.0000    0.05660   0.93360   0.71240   Biso      1.000     C          0.158847  
         C25       1.0000    0.02450   0.89110   0.76750   Biso      1.000     C          0.217128  
         C26       1.0000    0.35960   0.79650   0.49140   Biso      1.000     C          0.517417  
         C27       1.0000    0.48940   0.51290   0.70950   Biso      1.000     C          0.163005  
         C28       1.0000    0.51520   0.47310   0.76620   Biso      1.000     C          0.204044  
         C29       1.0000    0.02450   0.39110   0.73250   Biso      1.000     C          0.217128  
         C30       1.0000    0.05660   0.43360   0.78760   Biso      1.000     C          0.158847  
         C31       1.0000    0.01520   0.52690   0.76620   Biso      1.000     C          0.204044  
         C32       1.0000    0.98940   0.48710   0.70950   Biso      1.000     C          0.163004  
         C33       1.0000    0.85960   0.20350   0.49140   Biso      1.000     C          0.517417  
         C34       1.0000    0.52450   0.10890   0.76750   Biso      1.000     C          0.217128  
         C35       1.0000    0.55660   0.06640   0.71240   Biso      1.000     C          0.158847  
         C36       1.0000    0.51520   0.97310   0.73380   Biso      1.000     C          0.204044  
         C37       1.0000    0.48940   0.01290   0.79050   Biso      1.000     C          0.163004  
         C38       1.0000    0.35960   0.29650   0.00860   Biso      1.000     C          0.517417  
         C39       1.0000    0.52450   0.60890   0.73250   Biso      1.000     C          0.217128  
         C40       1.0000    0.55660   0.56640   0.78760   Biso      1.000     C          0.158847  
         La1       1.0000    0.88231   0.20589   0.63399   Biso      1.000     La          1.989315  
         La2       1.0000    0.38231   0.79411   0.63399   Biso      1.000     La          1.989315  
         La3       1.0000    0.61769   0.70589   0.13399   Biso      1.000     La          1.989314  
         La4       1.0000    0.11769   0.79411   0.36601   Biso      1.000     La          1.989315  
         La5       1.0000    0.11769   0.29411   0.13399   Biso      1.000     La          1.989314  
         La6       1.0000    0.61769   0.20589   0.36601   Biso      1.000     La          1.989315  
         La7       1.0000    0.38231   0.29411   0.86601   Biso      1.000     La          1.989315  
         La8       1.0000    0.88231   0.70589   0.86601   Biso      1.000     La          1.989315  
         O1        1.0000    0.49410   0.10940   0.28580   Biso      1.000     O          -0.535999           
         O2        1.0000    0.39520   0.90350   0.33530   Biso      1.000     O          -0.569295           
         O3        1.0000    0.47520   0.80860   0.21340   Biso      1.000     O          -0.534174           
         O4        1.0000    0.10570   0.80060   0.56025   Biso      1.000     O          -0.586654           
         O5        1.0000    0.99410   0.39060   0.21420   Biso      1.000     O          -0.535998           
         O6        1.0000    0.04490   0.47940   0.33740   Biso      1.000     O          -0.431943           
         O7        1.0000    0.54490   0.02060   0.16260   Biso      1.000     O          -0.431943           
         O8        1.0000    0.89520   0.59650   0.16470   Biso      1.000     O          -0.569294           
         O9        1.0000    0.01240   0.79410   0.47080   Biso      1.000     O          -0.591691           
         O10       1.0000    0.51240   0.70590   0.02920   Biso      1.000     O          -0.591691           
         O11       1.0000    0.60480   0.59650   0.83530   Biso      1.000     O          -0.569295           
         O12       1.0000    0.52480   0.69140   0.71340   Biso      1.000     O          -0.534175           
         O13       1.0000    0.97520   0.69140   0.28660   Biso      1.000     O          -0.534175           
         O14       1.0000    0.50590   0.39060   0.78580   Biso      1.000     O          -0.535997           
         O15       1.0000    0.45510   0.47940   0.66260   Biso      1.000     O          -0.431943           
         O16       1.0000    0.48760   0.79410   0.52920   Biso      1.000     O          -0.591691           
         O17       1.0000    0.39430   0.80060   0.43975   Biso      1.000     O          -0.586654           
         O18       1.0000    0.02480   0.80860   0.78660   Biso      1.000     O          -0.534175           
         O19       1.0000    0.10480   0.90350   0.66470   Biso      1.000     O          -0.569295           
         O20       1.0000    0.00590   0.10940   0.71420   Biso      1.000     O          -0.535998           
         O21       1.0000    0.95510   0.02060   0.83740   Biso      1.000     O          -0.431943           
         O22       1.0000    0.60570   0.69940   0.93975   Biso      1.000     O          -0.586654           
         O23       1.0000    0.10570   0.30060   0.93975   Biso      1.000     O          -0.586654           
         O24       1.0000    0.99410   0.89060   0.28580   Biso      1.000     O          -0.535998           
         O25       1.0000    0.04490   0.97940   0.16260   Biso      1.000     O          -0.431943           
         O26       1.0000    0.98760   0.70590   0.97080   Biso      1.000     O          -0.591691           
         O27       1.0000    0.02480   0.30860   0.71340   Biso      1.000     O          -0.534174           
         O28       1.0000    0.10480   0.40350   0.83530   Biso      1.000     O          -0.569295           
         O29       1.0000    0.00590   0.60940   0.78580   Biso      1.000     O          -0.535998           
         O30       1.0000    0.95510   0.52060   0.66260   Biso      1.000     O          -0.431943           
         O31       1.0000    0.98760   0.20590   0.52920   Biso      1.000     O          -0.591691           
         O32       1.0000    0.89430   0.19940   0.43975   Biso      1.000     O          -0.586654           
         O33       1.0000    0.52480   0.19140   0.78660   Biso      1.000     O          -0.534175           
         O34       1.0000    0.60480   0.09650   0.66470   Biso      1.000     O          -0.569295           
         O35       1.0000    0.50590   0.89060   0.71420   Biso      1.000     O          -0.535998           
         O36       1.0000    0.45510   0.97940   0.83740   Biso      1.000     O          -0.431943           
         O37       1.0000    0.48760   0.29410   0.97080   Biso      1.000     O          -0.591691           
         O38       1.0000    0.39430   0.30060   0.06025   Biso      1.000     O          -0.586654           
         O39       1.0000    0.47520   0.30860   0.28660   Biso      1.000     O          -0.534174           
         O40       1.0000    0.39520   0.40350   0.16470   Biso      1.000     O          -0.569295           
         O41       1.0000    0.49410   0.60940   0.21420   Biso      1.000     O          -0.535998           
         O42       1.0000    0.54490   0.52060   0.33740   Biso      1.000     O          -0.431943           
         O43       1.0000    0.51240   0.20590   0.47080   Biso      1.000     O          -0.591691           
         O44       1.0000    0.60570   0.19940   0.56025   Biso      1.000     O          -0.586654           
         O45       1.0000    0.97520   0.19140   0.21340   Biso      1.000     O          -0.534174           
         O46       1.0000    0.89520   0.09650   0.33530   Biso      1.000     O          -0.569295           
         O47       1.0000    0.01240   0.29410   0.02920   Biso      1.000     O          -0.591691           
         O48       1.0000    0.89430   0.69940   0.06025   Biso      1.000     O          -0.586654 