
##########################################################################
#               Crystallographic Information Format file
#               Produced by PyCifRW module
#
#  This is a CIF file.  CIF has been adopted by the International
#  Union of Crystallography as the standard for data archiving and
#  transmission.
#
#  For information on this file format, follow the CIF links at
#  http://www.iucr.org
##########################################################################

data_image0

_cell_length_a                          6.7588
_cell_length_b                          15.1941
_cell_length_c                          15.1941
_cell_angle_alpha                       62.1589
_cell_angle_beta                        81.4729
_cell_angle_gamma                       98.5271
_symmetry_space_group_name_H-M          'P 1'
_symmetry_int_tables_number             1
loop_
  _symmetry_equiv_pos_as_xyz
         'x, y, z' 
loop_
  _atom_site_label
  _atom_site_occupancy
  _atom_site_fract_x
  _atom_site_fract_y
  _atom_site_fract_z
  _atom_site_thermal_displace_type
  _atom_site_B_iso_or_equiv
  _atom_site_type_symbol
  _atom_site_charge
         C1        1.0000    0.67278   0.82071   0.56197   Biso      1.000     C          0.672773  
         C2        1.0000    0.46797   0.53222   0.90571   Biso      1.000     C          0.330046  
         C3        1.0000    0.71470   0.52358   0.01218   Biso      1.000     C          -0.188921           
         C4        1.0000    0.66047   0.55115   0.91114   Biso      1.000     C          -0.184199           
         C5        1.0000    0.85207   0.61732   0.82071   Biso      1.000     C          0.67135   
         C6        1.0000    0.93575   0.56207   0.53222   Biso      1.000     C          0.330352  
         C7        1.0000    0.19112   0.46424   0.52358   Biso      1.000     C          -0.18803399999999998          
         C8        1.0000    0.10932   0.53771   0.55115   Biso      1.000     C          -0.184738           
         C9        1.0000    0.23475   0.56197   0.61732   Biso      1.000     C          0.6683859999999999  
         C10       1.0000    0.62632   0.09429   0.43793   Biso      1.000     C          0.33161199999999996           
         C11       1.0000    0.27312   0.98782   0.53576   Biso      1.000     C          -0.188555           
         C12       1.0000    0.42839   0.08886   0.46229   Biso      1.000     C          -0.193826           
         C13       1.0000    0.32722   0.17929   0.43803   Biso      1.000     C          0.672755  
         C14       1.0000    0.53203   0.46778   0.09429   Biso      1.000     C          0.323264  
         C15       1.0000    0.28530   0.47642   0.98782   Biso      1.000     C          -0.18748900000000002          
         C16       1.0000    0.33953   0.44885   0.08886   Biso      1.000     C          -0.193166           
         C17       1.0000    0.14793   0.38268   0.17929   Biso      1.000     C          0.672111  
         C18       1.0000    0.06425   0.43793   0.46778   Biso      1.000     C          0.323538  
         C19       1.0000    0.80888   0.53576   0.47642   Biso      1.000     C          -0.186601           
         C20       1.0000    0.89068   0.46229   0.44885   Biso      1.000     C          -0.193664           
         C21       1.0000    0.76525   0.43803   0.38268   Biso      1.000     C          0.6691159999999999  
         C22       1.0000    0.37368   0.90571   0.56207   Biso      1.000     C          0.33163200000000004           
         C23       1.0000    0.72688   0.01218   0.46424   Biso      1.000     C          -0.18889  
         C24       1.0000    0.57161   0.91114   0.53771   Biso      1.000     C          -0.193133           
         H1        1.0000    0.66603   0.56129   0.45235   Biso      1.000     H          0.15676099999999998           
         H2        1.0000    0.11838   0.45235   0.98636   Biso      1.000     H          0.157057  
         H3        1.0000    0.10475   0.98636   0.56129   Biso      1.000     H          0.156172  
         H4        1.0000    0.32957   0.43019   0.54037   Biso      1.000     H          0.156797  
         H5        1.0000    0.89525   0.01364   0.43871   Biso      1.000     H          0.156122  
         H6        1.0000    0.86994   0.54037   0.02945   Biso      1.000     H          0.156797  
         Mg1       1.0000    0.03026   0.73440   0.57976   Biso      1.000     Mg          1.414082  
         Mg2       1.0000    0.70414   0.31416   0.26560   Biso      1.000     Mg          1.413481  
         Mg3       1.0000    0.96974   0.26560   0.42024   Biso      1.000     Mg          1.41458   
         Mg4       1.0000    0.61002   0.57976   0.68584   Biso      1.000     Mg          1.414576  
         Mg5       1.0000    0.29586   0.68584   0.73440   Biso      1.000     Mg          1.413899  
         Mg6       1.0000    0.38998   0.42024   0.31416   Biso      1.000     Mg          1.414791  
         O1        1.0000    0.12781   0.15625   0.47502   Biso      1.000     O          -0.655    
         O2        1.0000    0.60283   0.47502   0.36873   Biso      1.000     O          -0.655309           
         O3        1.0000    0.82030   0.38060   0.35240   Biso      1.000     O          -0.699277           
         O4        1.0000    0.13501   0.37149   0.43866   Biso      1.000     O          -0.8365299999999999           
         O5        1.0000    0.97156   0.36873   0.15625   Biso      1.000     O          -0.6561560000000001           
         O6        1.0000    0.23648   0.81015   0.62851   Biso      1.000     O          -0.8351459999999999           
         O7        1.0000    0.56030   0.73300   0.61940   Biso      1.000     O          -0.701459           
         O8        1.0000    0.87219   0.84375   0.52498   Biso      1.000     O          -0.655034           
         O9        1.0000    0.42633   0.56134   0.81015   Biso      1.000     O          -0.832991           
         O10       1.0000    0.82730   0.64760   0.73300   Biso      1.000     O          -0.703254           
         O11       1.0000    0.02844   0.63127   0.84375   Biso      1.000     O          -0.6559520000000001           
         O12       1.0000    0.17270   0.35240   0.26700   Biso      1.000     O          -0.701248           
         O13       1.0000    0.17970   0.61940   0.64760   Biso      1.000     O          -0.700481           
         O14       1.0000    0.39717   0.52498   0.63127   Biso      1.000     O          -0.655027           
         O15       1.0000    0.76352   0.18985   0.37149   Biso      1.000     O          -0.835822           
         O16       1.0000    0.43970   0.26700   0.38060   Biso      1.000     O          -0.702455           
         O17       1.0000    0.57367   0.43866   0.18985   Biso      1.000     O          -0.8357129999999999           
         O18       1.0000    0.86499   0.62851   0.56134   Biso      1.000     O          -0.8339799999999999 