
##########################################################################
#               Crystallographic Information Format file
#               Produced by PyCifRW module
#
#  This is a CIF file.  CIF has been adopted by the International
#  Union of Crystallography as the standard for data archiving and
#  transmission.
#
#  For information on this file format, follow the CIF links at
#  http://www.iucr.org
##########################################################################

data_image0

_cell_length_a                          11.877
_cell_length_b                          13.855
_cell_length_c                          13.921
_cell_angle_alpha                       90
_cell_angle_beta                        114.403
_cell_angle_gamma                       90
_symmetry_space_group_name_H-M          'P 1'
_symmetry_int_tables_number             1
loop_
  _symmetry_equiv_pos_as_xyz
         'x, y, z' 
loop_
  _atom_site_label
  _atom_site_occupancy
  _atom_site_fract_x
  _atom_site_fract_y
  _atom_site_fract_z
  _atom_site_thermal_displace_type
  _atom_site_B_iso_or_equiv
  _atom_site_type_symbol
  _atom_site_charge
         C1        1.0000    0.42820   0.89565   0.11732   Biso      1.000     C          0.600162  
         C2        1.0000    0.59000   0.13242   0.14043   Biso      1.000     C          0.607398  
         C3        1.0000    0.96310   0.33539   0.34229   Biso      1.000     C          0.135248  
         C4        1.0000    0.05450   0.26882   0.35420   Biso      1.000     C          -0.198622           
         C5        1.0000    0.17410   0.29872   0.38203   Biso      1.000     C          0.10371300000000001           
         C6        1.0000    0.34890   0.78856   0.78141   Biso      1.000     C          0.004195  
         C7        1.0000    0.11920   0.45654   0.38450   Biso      1.000     C          0.09463099999999999           
         C8        1.0000    0.99860   0.43176   0.35730   Biso      1.000     C          -0.20166099999999998          
         C9        1.0000    0.82590   0.70128   0.61797   Biso      1.000     C          0.103708  
         C10       1.0000    0.94550   0.73118   0.64580   Biso      1.000     C          -0.19861800000000002          
         C11       1.0000    0.03690   0.66461   0.65771   Biso      1.000     C          0.13525   
         C12       1.0000    0.57180   0.10435   0.88268   Biso      1.000     C          0.600162  
         C13       1.0000    0.64030   0.16107   0.83116   Biso      1.000     C          -0.002259           
         C14       1.0000    0.58360   0.23419   0.75963   Biso      1.000     C          -0.11994400000000001          
         C15       1.0000    0.65110   0.28856   0.71859   Biso      1.000     C          0.004197  
         C16       1.0000    0.77600   0.26880   0.74760   Biso      1.000     C          -0.165021           
         C17       1.0000    0.83240   0.19219   0.81508   Biso      1.000     C          0.057275  
         C18       1.0000    0.76370   0.13987   0.85718   Biso      1.000     C          -0.17000099999999999          
         C19       1.0000    0.59000   0.36758   0.64043   Biso      1.000     C          0.6073970000000001  
         C20       1.0000    0.96310   0.16461   0.84229   Biso      1.000     C          0.135248  
         C21       1.0000    0.05450   0.23118   0.85420   Biso      1.000     C          -0.198622           
         C22       1.0000    0.17410   0.20128   0.88203   Biso      1.000     C          0.10371300000000001           
         C23       1.0000    0.11920   0.04346   0.88450   Biso      1.000     C          0.09462999999999999           
         C24       1.0000    0.99860   0.06824   0.85730   Biso      1.000     C          -0.20166199999999998          
         C25       1.0000    0.41000   0.86758   0.85957   Biso      1.000     C          0.6073970000000001  
         C26       1.0000    0.23630   0.63987   0.64282   Biso      1.000     C          -0.170002           
         C27       1.0000    0.16760   0.69219   0.68492   Biso      1.000     C          0.057275  
         C28       1.0000    0.42820   0.60435   0.61732   Biso      1.000     C          0.600162  
         C29       1.0000    0.35970   0.66107   0.66884   Biso      1.000     C          -0.002259           
         C30       1.0000    0.41640   0.73419   0.74037   Biso      1.000     C          -0.11994200000000001          
         C31       1.0000    0.76370   0.36013   0.35718   Biso      1.000     C          -0.170003           
         C32       1.0000    0.83240   0.30781   0.31508   Biso      1.000     C          0.057275  
         C33       1.0000    0.22400   0.76880   0.75240   Biso      1.000     C          -0.165019           
         C34       1.0000    0.77600   0.23120   0.24760   Biso      1.000     C          -0.165019           
         C35       1.0000    0.82590   0.79872   0.11797   Biso      1.000     C          0.103708  
         C36       1.0000    0.41000   0.63242   0.35957   Biso      1.000     C          0.607398  
         C37       1.0000    0.88080   0.95654   0.11550   Biso      1.000     C          0.09463099999999999           
         C38       1.0000    0.00140   0.93176   0.14270   Biso      1.000     C          -0.201664           
         C39       1.0000    0.23630   0.86013   0.14282   Biso      1.000     C          -0.170002           
         C40       1.0000    0.16760   0.80781   0.18492   Biso      1.000     C          0.057274  
         C41       1.0000    0.03690   0.83539   0.15771   Biso      1.000     C          0.13525   
         C42       1.0000    0.22400   0.73120   0.25240   Biso      1.000     C          -0.165019           
         C43       1.0000    0.34890   0.71144   0.28141   Biso      1.000     C          0.004194  
         C44       1.0000    0.00140   0.56824   0.64270   Biso      1.000     C          -0.20167000000000002          
         C45       1.0000    0.88080   0.54346   0.61550   Biso      1.000     C          0.094639  
         C46       1.0000    0.65110   0.21144   0.21859   Biso      1.000     C          0.004195  
         C47       1.0000    0.35970   0.83893   0.16884   Biso      1.000     C          -0.002259           
         C48       1.0000    0.58360   0.26581   0.25963   Biso      1.000     C          -0.11994400000000001          
         C49       1.0000    0.41640   0.76581   0.24037   Biso      1.000     C          -0.11994200000000001          
         C50       1.0000    0.64030   0.33893   0.33116   Biso      1.000     C          -0.0022559999999999998        
         C51       1.0000    0.57180   0.39565   0.38268   Biso      1.000     C          0.600162  
         C52       1.0000    0.94550   0.76882   0.14580   Biso      1.000     C          -0.19861700000000002          
         H1        1.0000    0.17830   0.69310   0.27820   Biso      1.000     H          0.119031  
         H2        1.0000    0.14080   0.97850   0.89410   Biso      1.000     H          0.099424  
         H3        1.0000    0.17830   0.80690   0.77820   Biso      1.000     H          0.119031  
         H4        1.0000    0.23400   0.24760   0.89010   Biso      1.000     H          0.105298  
         H5        1.0000    0.19890   0.91040   0.09620   Biso      1.000     H          0.11473399999999999           
         H6        1.0000    0.19890   0.58960   0.59620   Biso      1.000     H          0.11473399999999999           
         H7        1.0000    0.03500   0.29640   0.84340   Biso      1.000     H          0.133711  
         H8        1.0000    0.50010   0.74680   0.76090   Biso      1.000     H          0.130618  
         H9        1.0000    0.50010   0.75320   0.26090   Biso      1.000     H          0.130618  
         H10       1.0000    0.94010   0.02060   0.84870   Biso      1.000     H          0.134598  
         H11       1.0000    0.82170   0.30690   0.72180   Biso      1.000     H          0.119031  
         H12       1.0000    0.96500   0.70360   0.15660   Biso      1.000     H          0.133711  
         H13       1.0000    0.80110   0.41040   0.40380   Biso      1.000     H          0.11473299999999999           
         H14       1.0000    0.49990   0.25320   0.23910   Biso      1.000     H          0.130619  
         H15       1.0000    0.03500   0.20360   0.34340   Biso      1.000     H          0.133711  
         H16       1.0000    0.76600   0.74760   0.60990   Biso      1.000     H          0.105298  
         H17       1.0000    0.14080   0.52150   0.39410   Biso      1.000     H          0.099424  
         H18       1.0000    0.85920   0.47850   0.60590   Biso      1.000     H          0.099423  
         H19       1.0000    0.94010   0.47940   0.34870   Biso      1.000     H          0.134598  
         H20       1.0000    0.80110   0.08960   0.90380   Biso      1.000     H          0.11473299999999999           
         H21       1.0000    0.96500   0.79640   0.65660   Biso      1.000     H          0.133711  
         H22       1.0000    0.05990   0.52060   0.65130   Biso      1.000     H          0.134598  
         H23       1.0000    0.05990   0.97940   0.15130   Biso      1.000     H          0.134598  
         H24       1.0000    0.85920   0.02150   0.10590   Biso      1.000     H          0.099424  
         H25       1.0000    0.49990   0.24680   0.73910   Biso      1.000     H          0.130619  
         H26       1.0000    0.76600   0.75240   0.10990   Biso      1.000     H          0.105298  
         H27       1.0000    0.82170   0.19310   0.22180   Biso      1.000     H          0.119031  
         H28       1.0000    0.23400   0.25240   0.39010   Biso      1.000     H          0.105298  
         N1        1.0000    0.79181   0.60894   0.60203   Biso      1.000     N          -0.203181           
         N2        1.0000    0.20819   0.39106   0.39797   Biso      1.000     N          -0.203181           
         N3        1.0000    0.79181   0.89106   0.10203   Biso      1.000     N          -0.20318  
         N4        1.0000    0.20819   0.10894   0.89797   Biso      1.000     N          -0.203181           
         O1        1.0000    0.48104   0.14698   0.07517   Biso      1.000     O          -0.548457           
         O2        1.0000    0.65338   0.44191   0.64682   Biso      1.000     O          -0.56801  
         O3        1.0000    0.48104   0.35302   0.57517   Biso      1.000     O          -0.548457           
         O4        1.0000    0.46351   0.12984   0.86519   Biso      1.000     O          -0.542986           
         O5        1.0000    0.62967   0.03607   0.94132   Biso      1.000     O          -0.5760850000000001           
         O6        1.0000    0.34662   0.94191   0.85318   Biso      1.000     O          -0.56801  
         O7        1.0000    0.65338   0.05809   0.14682   Biso      1.000     O          -0.56801  
         O8        1.0000    0.46351   0.37016   0.36519   Biso      1.000     O          -0.542986           
         O9        1.0000    0.62967   0.46393   0.44132   Biso      1.000     O          -0.5760850000000001           
         O10       1.0000    0.51896   0.85302   0.92483   Biso      1.000     O          -0.548457           
         O11       1.0000    0.34662   0.55809   0.35318   Biso      1.000     O          -0.56801  
         O12       1.0000    0.51896   0.64698   0.42483   Biso      1.000     O          -0.548457           
         O13       1.0000    0.53649   0.87016   0.13481   Biso      1.000     O          -0.542986           
         O14       1.0000    0.37033   0.96393   0.05868   Biso      1.000     O          -0.5760850000000001           
         O15       1.0000    0.53649   0.62984   0.63481   Biso      1.000     O          -0.542986           
         O16       1.0000    0.37033   0.53607   0.55868   Biso      1.000     O          -0.5760850000000001           
         Zn1       1.0000    0.38482   0.44025   0.45038   Biso      1.000     Zn          0.856191  
         Zn2       1.0000    0.61518   0.94025   0.04962   Biso      1.000     Zn          0.856191  
         Zn3       1.0000    0.38482   0.05975   0.95038   Biso      1.000     Zn          0.85619   
         Zn4       1.0000    0.61518   0.55975   0.54962   Biso      1.000     Zn          0.85619 