
##########################################################################
#               Crystallographic Information Format file
#               Produced by PyCifRW module
#
#  This is a CIF file.  CIF has been adopted by the International
#  Union of Crystallography as the standard for data archiving and
#  transmission.
#
#  For information on this file format, follow the CIF links at
#  http://www.iucr.org
##########################################################################

data_image0

_cell_length_a                          24.408
_cell_length_b                          27.827
_cell_length_c                          5.1509
_cell_angle_alpha                       90
_cell_angle_beta                        90
_cell_angle_gamma                       90
_symmetry_space_group_name_H-M          'P 1'
_symmetry_int_tables_number             1
loop_
  _symmetry_equiv_pos_as_xyz
         'x, y, z' 
loop_
  _atom_site_label
  _atom_site_occupancy
  _atom_site_fract_x
  _atom_site_fract_y
  _atom_site_fract_z
  _atom_site_thermal_displace_type
  _atom_site_B_iso_or_equiv
  _atom_site_type_symbol
  _atom_site_charge
         C1        1.0000    0.69820   0.64610   0.92880   Biso      1.000     C          -0.120066           
         C2        1.0000    0.64790   0.01980   0.31420   Biso      1.000     C          -0.490287           
         C3        1.0000    0.80320   0.50980   0.22940   Biso      1.000     C          -0.12301  
         C4        1.0000    0.14790   0.98020   0.68580   Biso      1.000     C          -0.490286           
         C5        1.0000    0.85210   0.01980   0.31420   Biso      1.000     C          -0.490286           
         C6        1.0000    0.14760   0.37590   0.19570   Biso      1.000     C          -0.518455           
         C7        1.0000    0.19820   0.14610   0.07120   Biso      1.000     C          -0.120066           
         C8        1.0000    0.80180   0.85390   0.92880   Biso      1.000     C          -0.120067           
         C9        1.0000    0.19820   0.35390   0.07120   Biso      1.000     C          -0.120066           
         C10       1.0000    0.14760   0.12410   0.19570   Biso      1.000     C          -0.518456           
         C11       1.0000    0.75000   0.48790   0.32100   Biso      1.000     C          -0.172167           
         C12       1.0000    0.80320   0.99020   0.22940   Biso      1.000     C          -0.12301  
         C13       1.0000    0.85240   0.87590   0.80430   Biso      1.000     C          -0.518456           
         C14       1.0000    0.35210   0.51980   0.68580   Biso      1.000     C          -0.490287           
         C15       1.0000    0.69680   0.99020   0.22940   Biso      1.000     C          -0.12301  
         C16       1.0000    0.30320   0.00980   0.77060   Biso      1.000     C          -0.12301  
         C17       1.0000    0.35240   0.12410   0.19570   Biso      1.000     C          -0.518457           
         C18       1.0000    0.19680   0.00980   0.77060   Biso      1.000     C          -0.12301  
         C19       1.0000    0.30180   0.14610   0.07120   Biso      1.000     C          -0.120067           
         C20       1.0000    0.64760   0.87590   0.80430   Biso      1.000     C          -0.518455           
         C21       1.0000    0.35210   0.98020   0.68580   Biso      1.000     C          -0.490287           
         C22       1.0000    0.85210   0.48020   0.31420   Biso      1.000     C          -0.490286           
         C23       1.0000    0.14790   0.51980   0.68580   Biso      1.000     C          -0.490286           
         C24       1.0000    0.69820   0.85390   0.92880   Biso      1.000     C          -0.120066           
         C25       1.0000    0.30320   0.49020   0.77060   Biso      1.000     C          -0.12301  
         C26       1.0000    0.19680   0.49020   0.77060   Biso      1.000     C          -0.12301  
         C27       1.0000    0.64790   0.48020   0.31420   Biso      1.000     C          -0.490287           
         C28       1.0000    0.25000   0.37260   0.19100   Biso      1.000     C          -0.161095           
         C29       1.0000    0.75000   0.01210   0.32100   Biso      1.000     C          -0.172167           
         C30       1.0000    0.85240   0.62410   0.80430   Biso      1.000     C          -0.518457           
         C31       1.0000    0.30180   0.35390   0.07120   Biso      1.000     C          -0.120067           
         C32       1.0000    0.64760   0.62410   0.80430   Biso      1.000     C          -0.518455           
         C33       1.0000    0.25000   0.51210   0.67900   Biso      1.000     C          -0.172167           
         C34       1.0000    0.75000   0.87260   0.80900   Biso      1.000     C          -0.161095           
         C35       1.0000    0.80180   0.64610   0.92880   Biso      1.000     C          -0.120067           
         C36       1.0000    0.69680   0.50980   0.22940   Biso      1.000     C          -0.12301  
         C37       1.0000    0.25000   0.98790   0.67900   Biso      1.000     C          -0.172167           
         C38       1.0000    0.75000   0.62740   0.80900   Biso      1.000     C          -0.161095           
         C39       1.0000    0.35240   0.37590   0.19570   Biso      1.000     C          -0.518456           
         C40       1.0000    0.25000   0.12740   0.19100   Biso      1.000     C          -0.161095           
         H1        1.0000    0.85120   0.91110   0.83060   Biso      1.000     H          0.162071  
         H2        1.0000    0.19710   0.01220   0.96240   Biso      1.000     H          0.084202  
         H3        1.0000    0.34770   0.55260   0.75710   Biso      1.000     H          0.159901  
         H4        1.0000    0.75000   0.59190   0.82140   Biso      1.000     H          0.098341  
         H5        1.0000    0.35100   0.52250   0.49420   Biso      1.000     H          0.158753  
         H6        1.0000    0.19340   0.04280   0.69970   Biso      1.000     H          0.08865   
         H7        1.0000    0.80310   0.81860   0.90920   Biso      1.000     H          0.099325  
         H8        1.0000    0.85080   0.86990   0.61500   Biso      1.000     H          0.157333  
         H9        1.0000    0.69690   0.68140   0.90920   Biso      1.000     H          0.099328  
         H10       1.0000    0.80170   0.86140   0.11680   Biso      1.000     H          0.080326  
         H11       1.0000    0.15230   0.94740   0.75710   Biso      1.000     H          0.159901  
         H12       1.0000    0.64920   0.63010   0.61500   Biso      1.000     H          0.157337  
         H13       1.0000    0.14900   0.97750   0.49420   Biso      1.000     H          0.158752  
         H14       1.0000    0.30660   0.45720   0.69970   Biso      1.000     H          0.08865   
         H15       1.0000    0.64880   0.58890   0.83060   Biso      1.000     H          0.162071  
         H16       1.0000    0.30290   0.48780   0.96240   Biso      1.000     H          0.084202  
         H17       1.0000    0.69830   0.63860   0.11680   Biso      1.000     H          0.080327  
         H18       1.0000    0.91360   0.89260   0.25380   Biso      1.000     H          0.429333  
         H19       1.0000    0.69710   0.98780   0.03760   Biso      1.000     H          0.084202  
         H20       1.0000    0.64900   0.02250   0.50580   Biso      1.000     H          0.158753  
         H21       1.0000    0.75000   0.86410   0.62220   Biso      1.000     H          0.083614  
         H22       1.0000    0.75000   0.90810   0.82140   Biso      1.000     H          0.098341  
         H23       1.0000    0.25000   0.13590   0.37780   Biso      1.000     H          0.083614  
         H24       1.0000    0.25000   0.09190   0.17860   Biso      1.000     H          0.098342  
         H25       1.0000    0.25000   0.36410   0.37780   Biso      1.000     H          0.083614  
         H26       1.0000    0.25000   0.40810   0.17860   Biso      1.000     H          0.098342  
         H27       1.0000    0.25000   0.51130   0.48680   Biso      1.000     H          0.083688  
         H28       1.0000    0.25000   0.54630   0.73130   Biso      1.000     H          0.095933  
         H29       1.0000    0.25000   0.98870   0.48680   Biso      1.000     H          0.083688  
         H30       1.0000    0.25000   0.95370   0.73130   Biso      1.000     H          0.095933  
         H31       1.0000    0.75000   0.01130   0.51320   Biso      1.000     H          0.083688  
         H32       1.0000    0.75000   0.04630   0.26870   Biso      1.000     H          0.095934  
         H33       1.0000    0.75000   0.48870   0.51320   Biso      1.000     H          0.083688  
         H34       1.0000    0.75000   0.45370   0.26870   Biso      1.000     H          0.095934  
         H35       1.0000    0.80660   0.54280   0.30030   Biso      1.000     H          0.08865   
         H36       1.0000    0.80290   0.51220   0.03760   Biso      1.000     H          0.084202  
         H37       1.0000    0.14880   0.41110   0.16940   Biso      1.000     H          0.162072  
         H38       1.0000    0.14920   0.36990   0.38500   Biso      1.000     H          0.157336  
         H39       1.0000    0.19690   0.31860   0.09080   Biso      1.000     H          0.099327  
         H40       1.0000    0.19830   0.36140   0.88320   Biso      1.000     H          0.080327  
         H41       1.0000    0.84770   0.44740   0.24290   Biso      1.000     H          0.159901  
         H42       1.0000    0.85100   0.47750   0.50580   Biso      1.000     H          0.158753  
         H43       1.0000    0.08640   0.39260   0.74620   Biso      1.000     H          0.429334  
         H44       1.0000    0.69340   0.95720   0.30030   Biso      1.000     H          0.08865   
         H45       1.0000    0.35120   0.08890   0.16940   Biso      1.000     H          0.162072  
         H46       1.0000    0.35080   0.13010   0.38500   Biso      1.000     H          0.157335  
         H47       1.0000    0.30310   0.18140   0.09080   Biso      1.000     H          0.099326  
         H48       1.0000    0.30170   0.13860   0.88320   Biso      1.000     H          0.080327  
         H49       1.0000    0.65230   0.05260   0.24290   Biso      1.000     H          0.159901  
         H50       1.0000    0.41360   0.10740   0.74620   Biso      1.000     H          0.429333  
         H51       1.0000    0.58640   0.60740   0.25380   Biso      1.000     H          0.429334  
         H52       1.0000    0.75000   0.63590   0.62220   Biso      1.000     H          0.083614  
         H53       1.0000    0.35080   0.36990   0.38500   Biso      1.000     H          0.157335  
         H54       1.0000    0.35120   0.41110   0.16940   Biso      1.000     H          0.162072  
         H55       1.0000    0.69710   0.51220   0.03760   Biso      1.000     H          0.084202  
         H56       1.0000    0.69340   0.54280   0.30030   Biso      1.000     H          0.08865   
         H57       1.0000    0.69830   0.86140   0.11680   Biso      1.000     H          0.080327  
         H58       1.0000    0.80660   0.95720   0.30030   Biso      1.000     H          0.08865   
         H59       1.0000    0.08640   0.10740   0.74620   Biso      1.000     H          0.429334  
         H60       1.0000    0.80290   0.98780   0.03760   Biso      1.000     H          0.084202  
         H61       1.0000    0.14920   0.13010   0.38500   Biso      1.000     H          0.157336  
         H62       1.0000    0.85100   0.02250   0.50580   Biso      1.000     H          0.158752  
         H63       1.0000    0.19830   0.13860   0.88320   Biso      1.000     H          0.080327  
         H64       1.0000    0.30660   0.04280   0.69970   Biso      1.000     H          0.08865   
         H65       1.0000    0.30290   0.01220   0.96240   Biso      1.000     H          0.084202  
         H66       1.0000    0.64880   0.91110   0.83060   Biso      1.000     H          0.162071  
         H67       1.0000    0.64920   0.86990   0.61500   Biso      1.000     H          0.157337  
         H68       1.0000    0.69690   0.81860   0.90920   Biso      1.000     H          0.099328  
         H69       1.0000    0.19690   0.18140   0.09080   Biso      1.000     H          0.099327  
         H70       1.0000    0.84770   0.05260   0.24290   Biso      1.000     H          0.159901  
         H71       1.0000    0.30310   0.31860   0.09080   Biso      1.000     H          0.099326  
         H72       1.0000    0.14880   0.08890   0.16940   Biso      1.000     H          0.162072  
         H73       1.0000    0.65230   0.44740   0.24290   Biso      1.000     H          0.1599    
         H74       1.0000    0.58640   0.89260   0.25380   Biso      1.000     H          0.429334  
         H75       1.0000    0.35100   0.97750   0.49420   Biso      1.000     H          0.158752  
         H76       1.0000    0.34770   0.94740   0.75710   Biso      1.000     H          0.159901  
         H77       1.0000    0.41360   0.39260   0.74620   Biso      1.000     H          0.429333  
         H78       1.0000    0.19340   0.45720   0.69970   Biso      1.000     H          0.08865   
         H79       1.0000    0.19710   0.48780   0.96240   Biso      1.000     H          0.084202  
         H80       1.0000    0.30170   0.36140   0.88320   Biso      1.000     H          0.080327  
         H81       1.0000    0.85080   0.63010   0.61500   Biso      1.000     H          0.157333  
         H82       1.0000    0.85120   0.58890   0.83060   Biso      1.000     H          0.162071  
         H83       1.0000    0.80310   0.68140   0.90920   Biso      1.000     H          0.099325  
         H84       1.0000    0.80170   0.63860   0.11680   Biso      1.000     H          0.080326  
         H85       1.0000    0.15230   0.55260   0.75710   Biso      1.000     H          0.159901  
         H86       1.0000    0.14900   0.52250   0.49420   Biso      1.000     H          0.158752  
         H87       1.0000    0.64900   0.47750   0.50580   Biso      1.000     H          0.158752  
         H88       1.0000    0.91360   0.60740   0.25380   Biso      1.000     H          0.429333  
         O1        1.0000    0.08410   0.36300   0.77570   Biso      1.000     O          -0.686352           
         O2        1.0000    0.03662   0.38250   0.19910   Biso      1.000     O          -0.777619           
         O3        1.0000    0.93030   0.54847   0.37220   Biso      1.000     O          -0.780909           
         O4        1.0000    0.95830   0.46270   0.31870   Biso      1.000     O          -0.751481           
         O5        1.0000    0.92043   0.50970   0.93600   Biso      1.000     O          -0.765806           
         O6        1.0000    0.07890   0.30120   0.10510   Biso      1.000     O          -0.726171           
         O7        1.0000    0.45830   0.53730   0.68130   Biso      1.000     O          -0.751477           
         O8        1.0000    0.03662   0.11750   0.19910   Biso      1.000     O          -0.777619           
         O9        1.0000    0.08410   0.13700   0.77570   Biso      1.000     O          -0.686353           
         O10       1.0000    0.42043   0.00970   0.06400   Biso      1.000     O          -0.765803           
         O11       1.0000    0.93030   0.95153   0.37220   Biso      1.000     O          -0.780908           
         O12       1.0000    0.95830   0.03730   0.31870   Biso      1.000     O          -0.751478           
         O13       1.0000    0.92043   0.99030   0.93600   Biso      1.000     O          -0.765805           
         O14       1.0000    0.42110   0.30120   0.10510   Biso      1.000     O          -0.726231           
         O15       1.0000    0.41590   0.36300   0.77570   Biso      1.000     O          -0.686351           
         O16       1.0000    0.46338   0.38250   0.19910   Biso      1.000     O          -0.777623           
         O17       1.0000    0.56970   0.54847   0.37220   Biso      1.000     O          -0.780903           
         O18       1.0000    0.54170   0.46270   0.31870   Biso      1.000     O          -0.751475           
         O19       1.0000    0.57957   0.50970   0.93600   Biso      1.000     O          -0.765803           
         O20       1.0000    0.07890   0.19880   0.10510   Biso      1.000     O          -0.726171           
         O21       1.0000    0.45830   0.96270   0.68130   Biso      1.000     O          -0.751475           
         O22       1.0000    0.53662   0.88250   0.80090   Biso      1.000     O          -0.777615           
         O23       1.0000    0.42043   0.49030   0.06400   Biso      1.000     O          -0.765804           
         O24       1.0000    0.07957   0.00970   0.06400   Biso      1.000     O          -0.765804           
         O25       1.0000    0.04170   0.96270   0.68130   Biso      1.000     O          -0.751479           
         O26       1.0000    0.06970   0.04847   0.62780   Biso      1.000     O          -0.780907           
         O27       1.0000    0.96338   0.88250   0.80090   Biso      1.000     O          -0.777628           
         O28       1.0000    0.91590   0.86300   0.22430   Biso      1.000     O          -0.68635  
         O29       1.0000    0.91590   0.63700   0.22430   Biso      1.000     O          -0.68635  
         O30       1.0000    0.57890   0.69880   0.89490   Biso      1.000     O          -0.726103           
         O31       1.0000    0.58410   0.63700   0.22430   Biso      1.000     O          -0.686353           
         O32       1.0000    0.43030   0.04847   0.62780   Biso      1.000     O          -0.780906           
         O33       1.0000    0.92110   0.80120   0.89490   Biso      1.000     O          -0.726313           
         O34       1.0000    0.96338   0.61750   0.80090   Biso      1.000     O          -0.777628           
         O35       1.0000    0.06970   0.45153   0.62780   Biso      1.000     O          -0.780907           
         O36       1.0000    0.04170   0.53730   0.68130   Biso      1.000     O          -0.75148  
         O37       1.0000    0.53662   0.61750   0.80090   Biso      1.000     O          -0.777615           
         O38       1.0000    0.43030   0.45153   0.62780   Biso      1.000     O          -0.780906           
         O39       1.0000    0.07957   0.49030   0.06400   Biso      1.000     O          -0.765805           
         O40       1.0000    0.58410   0.86300   0.22430   Biso      1.000     O          -0.686353           
         O41       1.0000    0.57890   0.80120   0.89490   Biso      1.000     O          -0.726103           
         O42       1.0000    0.42110   0.19880   0.10510   Biso      1.000     O          -0.726231           
         O43       1.0000    0.41590   0.13700   0.77570   Biso      1.000     O          -0.686352           
         O44       1.0000    0.46338   0.11750   0.19910   Biso      1.000     O          -0.777623           
         O45       1.0000    0.56970   0.95153   0.37220   Biso      1.000     O          -0.780904           
         O46       1.0000    0.92110   0.69880   0.89490   Biso      1.000     O          -0.726313           
         O47       1.0000    0.57957   0.99030   0.93600   Biso      1.000     O          -0.765803           
         O48       1.0000    0.54170   0.03730   0.31870   Biso      1.000     O          -0.751475           
         P1        1.0000    0.91875   0.99837   0.22400   Biso      1.000     P          1.36588   
         P2        1.0000    0.08125   0.00163   0.77600   Biso      1.000     P          1.365881  
         P3        1.0000    0.91671   0.85413   0.92320   Biso      1.000     P          1.384667  
         P4        1.0000    0.58329   0.85413   0.92320   Biso      1.000     P          1.384638  
         P5        1.0000    0.41875   0.00163   0.77600   Biso      1.000     P          1.365877  
         P6        1.0000    0.58125   0.50163   0.22400   Biso      1.000     P          1.365878  
         P7        1.0000    0.41671   0.35413   0.07680   Biso      1.000     P          1.384656  
         P8        1.0000    0.41875   0.49837   0.77600   Biso      1.000     P          1.365879  
         P9        1.0000    0.41671   0.14587   0.07680   Biso      1.000     P          1.384656  
         P10       1.0000    0.91875   0.50163   0.22400   Biso      1.000     P          1.365882  
         P11       1.0000    0.08329   0.35413   0.07680   Biso      1.000     P          1.384648  
         P12       1.0000    0.58125   0.99837   0.22400   Biso      1.000     P          1.365879  
         P13       1.0000    0.58329   0.64587   0.92320   Biso      1.000     P          1.384638  
         P14       1.0000    0.08125   0.49837   0.77600   Biso      1.000     P          1.365881  
         P15       1.0000    0.91671   0.64587   0.92320   Biso      1.000     P          1.384667  
         P16       1.0000    0.08329   0.14587   0.07680   Biso      1.000     P          1.384648  
         Zn1       1.0000    0.53509   0.54930   0.71289   Biso      1.000     Zn          1.085124  
         Zn2       1.0000    0.46138   0.25000   0.30610   Biso      1.000     Zn          0.940993  
         Zn3       1.0000    0.03509   0.04930   0.28711   Biso      1.000     Zn          1.085126  
         Zn4       1.0000    0.96138   0.75000   0.69390   Biso      1.000     Zn          0.941153  
         Zn5       1.0000    0.53862   0.75000   0.69390   Biso      1.000     Zn          0.940744  
         Zn6       1.0000    0.03862   0.25000   0.30610   Biso      1.000     Zn          0.94088   
         Zn7       1.0000    0.96491   0.54930   0.71289   Biso      1.000     Zn          1.085127  
         Zn8       1.0000    0.46491   0.04930   0.28711   Biso      1.000     Zn          1.085124  
         Zn9       1.0000    0.03509   0.45070   0.28711   Biso      1.000     Zn          1.085127  
         Zn10      1.0000    0.53509   0.95070   0.71289   Biso      1.000     Zn          1.085124  
         Zn11      1.0000    0.96491   0.95070   0.71289   Biso      1.000     Zn          1.085126  
         Zn12      1.0000    0.46491   0.45070   0.28711   Biso      1.000     Zn          1.085124 