
##########################################################################
#               Crystallographic Information Format file
#               Produced by PyCifRW module
#
#  This is a CIF file.  CIF has been adopted by the International
#  Union of Crystallography as the standard for data archiving and
#  transmission.
#
#  For information on this file format, follow the CIF links at
#  http://www.iucr.org
##########################################################################

data_image0

_cell_length_a                          9.038
_cell_length_b                          9.038
_cell_length_c                          14.9034
_cell_angle_alpha                       105.972
_cell_angle_beta                        105.973
_cell_angle_gamma                       95.3063
_symmetry_space_group_name_H-M          'P 1'
_symmetry_int_tables_number             1
loop_
  _symmetry_equiv_pos_as_xyz
         'x, y, z' 
loop_
  _atom_site_label
  _atom_site_occupancy
  _atom_site_fract_x
  _atom_site_fract_y
  _atom_site_fract_z
  _atom_site_thermal_displace_type
  _atom_site_B_iso_or_equiv
  _atom_site_type_symbol
  _atom_site_charge
         C1        1.0000    0.83626   0.04086   0.40132   Biso      1.000     C          -0.612604           
         C2        1.0000    0.93494   0.63954   0.59868   Biso      1.000     C          -0.611531           
         C3        1.0000    0.79269   0.51449   0.56478   Biso      1.000     C          0.7376    
         C4        1.0000    0.04086   0.83626   0.90132   Biso      1.000     C          -0.612571           
         C5        1.0000    0.94971   0.72791   0.93522   Biso      1.000     C          0.737275  
         C6        1.0000    0.36046   0.06506   0.90132   Biso      1.000     C          -0.611488           
         C7        1.0000    0.48551   0.20731   0.93522   Biso      1.000     C          0.737629  
         C8        1.0000    0.31740   0.68260   0.25000   Biso      1.000     C          0.5002850000000001  
         C9        1.0000    0.72791   0.94971   0.43522   Biso      1.000     C          0.7372920000000001  
         C10       1.0000    0.06506   0.36046   0.40132   Biso      1.000     C          -0.611532           
         C11       1.0000    0.20731   0.48551   0.43522   Biso      1.000     C          0.7376    
         C12       1.0000    0.95914   0.16374   0.09868   Biso      1.000     C          -0.612572           
         C13       1.0000    0.05029   0.27209   0.06478   Biso      1.000     C          0.737275  
         C14       1.0000    0.63954   0.93494   0.09868   Biso      1.000     C          -0.61149  
         C15       1.0000    0.51449   0.79269   0.06478   Biso      1.000     C          0.73763   
         C16       1.0000    0.27209   0.05029   0.56478   Biso      1.000     C          0.7372920000000001  
         C17       1.0000    0.16374   0.95914   0.59868   Biso      1.000     C          -0.612603           
         C18       1.0000    0.56740   0.43260   0.75000   Biso      1.000     C          0.502013  
         C19       1.0000    0.68260   0.31740   0.75000   Biso      1.000     C          0.500286  
         C20       1.0000    0.43260   0.56740   0.25000   Biso      1.000     C          0.502013  
         H1        1.0000    0.25830   0.09210   0.87500   Biso      1.000     H          0.16989200000000002           
         H2        1.0000    0.61930   0.01690   0.15020   Biso      1.000     H          0.18542899999999998           
         H3        1.0000    0.74170   0.90790   0.12500   Biso      1.000     H          0.16989300000000002           
         H4        1.0000    0.63950   0.97290   0.04320   Biso      1.000     H          0.200477  
         H5        1.0000    0.03090   0.13330   0.15020   Biso      1.000     H          0.186346  
         H6        1.0000    0.88330   0.21710   0.12500   Biso      1.000     H          0.17009200000000002           
         H7        1.0000    0.90370   0.07030   0.04320   Biso      1.000     H          0.200232  
         H8        1.0000    0.98310   0.38070   0.34980   Biso      1.000     H          0.185441  
         H9        1.0000    0.09210   0.25830   0.37500   Biso      1.000     H          0.1699    
         H10       1.0000    0.38070   0.98310   0.84980   Biso      1.000     H          0.185428  
         H11       1.0000    0.02710   0.36050   0.45680   Biso      1.000     H          0.200491  
         H12       1.0000    0.78290   0.11670   0.37500   Biso      1.000     H          0.170146  
         H13       1.0000    0.07030   0.90370   0.54320   Biso      1.000     H          0.20023   
         H14       1.0000    0.21710   0.88330   0.62500   Biso      1.000     H          0.170146  
         H15       1.0000    0.13330   0.03090   0.65020   Biso      1.000     H          0.186329  
         H16       1.0000    0.97290   0.63950   0.54320   Biso      1.000     H          0.200491  
         H17       1.0000    0.90790   0.74170   0.62500   Biso      1.000     H          0.1699    
         H18       1.0000    0.01690   0.61930   0.65020   Biso      1.000     H          0.18544000000000002           
         H19       1.0000    0.92970   0.09630   0.45680   Biso      1.000     H          0.200231  
         H20       1.0000    0.11670   0.78290   0.87500   Biso      1.000     H          0.17009200000000002           
         H21       1.0000    0.96910   0.86670   0.84980   Biso      1.000     H          0.186346  
         H22       1.0000    0.36050   0.02710   0.95680   Biso      1.000     H          0.200476  
         H23       1.0000    0.86670   0.96910   0.34980   Biso      1.000     H          0.186329  
         H24       1.0000    0.09630   0.92970   0.95680   Biso      1.000     H          0.200232  
         La1       1.0000    0.25386   0.50386   0.00772   Biso      1.000     La          1.9489310000000002  
         La2       1.0000    0.50386   0.25386   0.50772   Biso      1.000     La          1.948927  
         La3       1.0000    0.74614   0.49614   0.99228   Biso      1.000     La          1.9489310000000002  
         La4       1.0000    0.49614   0.74614   0.49228   Biso      1.000     La          1.948926  
         O1        1.0000    0.25915   0.18839   0.56514   Biso      1.000     O          -0.603057           
         O2        1.0000    0.66802   0.21962   0.66864   Biso      1.000     O          -0.583871           
         O3        1.0000    0.65775   0.54729   0.53484   Biso      1.000     O          -0.718882           
         O4        1.0000    0.80599   0.37675   0.56514   Biso      1.000     O          -0.6037140000000001           
         O5        1.0000    0.55098   0.49938   0.83136   Biso      1.000     O          -0.584476           
         O6        1.0000    0.01245   0.62291   0.96516   Biso      1.000     O          -0.719387           
         O7        1.0000    0.81161   0.74085   0.93486   Biso      1.000     O          -0.603051           
         O8        1.0000    0.78038   0.33198   0.83136   Biso      1.000     O          -0.583842           
         O9        1.0000    0.45271   0.34225   0.96516   Biso      1.000     O          -0.718916           
         O10       1.0000    0.62325   0.19401   0.93486   Biso      1.000     O          -0.6037140000000001           
         O11       1.0000    0.49938   0.55098   0.33136   Biso      1.000     O          -0.584453           
         O12       1.0000    0.62291   0.01245   0.46516   Biso      1.000     O          -0.7194   
         O13       1.0000    0.74085   0.81161   0.43486   Biso      1.000     O          -0.603057           
         O14       1.0000    0.33198   0.78038   0.33136   Biso      1.000     O          -0.583871           
         O15       1.0000    0.34225   0.45271   0.46516   Biso      1.000     O          -0.718882           
         O16       1.0000    0.19401   0.62325   0.43486   Biso      1.000     O          -0.6037140000000001           
         O17       1.0000    0.44902   0.50062   0.16864   Biso      1.000     O          -0.584476           
         O18       1.0000    0.98755   0.37709   0.03484   Biso      1.000     O          -0.719387           
         O19       1.0000    0.18839   0.25915   0.06514   Biso      1.000     O          -0.60305  
         O20       1.0000    0.21962   0.66802   0.16864   Biso      1.000     O          -0.583842           
         O21       1.0000    0.54729   0.65775   0.03484   Biso      1.000     O          -0.718916           
         O22       1.0000    0.37675   0.80599   0.06514   Biso      1.000     O          -0.6037140000000001           
         O23       1.0000    0.37709   0.98755   0.53484   Biso      1.000     O          -0.7194010000000001           
         O24       1.0000    0.50062   0.44902   0.66864   Biso      1.000     O          -0.584453 