
##########################################################################
#               Crystallographic Information Format file
#               Produced by PyCifRW module
#
#  This is a CIF file.  CIF has been adopted by the International
#  Union of Crystallography as the standard for data archiving and
#  transmission.
#
#  For information on this file format, follow the CIF links at
#  http://www.iucr.org
##########################################################################

data_image0

_cell_length_a                          23.984
_cell_length_b                          13.122
_cell_length_c                          11.917
_cell_angle_alpha                       90
_cell_angle_beta                        90
_cell_angle_gamma                       90
_symmetry_space_group_name_H-M          'P 1'
_symmetry_int_tables_number             1
loop_
  _symmetry_equiv_pos_as_xyz
         'x, y, z' 
loop_
  _atom_site_label
  _atom_site_occupancy
  _atom_site_fract_x
  _atom_site_fract_y
  _atom_site_fract_z
  _atom_site_thermal_displace_type
  _atom_site_B_iso_or_equiv
  _atom_site_type_symbol
  _atom_site_charge
         C1        1.0000    0.08790   0.84020   0.62860   Biso      1.000     C          -0.137238           
         C2        1.0000    0.41210   0.15980   0.62860   Biso      1.000     C          -0.137238           
         C3        1.0000    0.92472   0.98090   0.48890   Biso      1.000     C          -0.101134           
         C4        1.0000    0.43740   0.07610   0.67860   Biso      1.000     C          -0.102484           
         C5        1.0000    0.44506   0.98720   0.61900   Biso      1.000     C          7.6e-05   
         C6        1.0000    0.42472   0.98090   0.51110   Biso      1.000     C          -0.101131           
         C7        1.0000    0.94506   0.98720   0.38100   Biso      1.000     C          7.6e-05   
         C8        1.0000    0.39911   0.06470   0.46070   Biso      1.000     C          -0.147126           
         C9        1.0000    0.39293   0.15460   0.51990   Biso      1.000     C          0.034403  
         C10       1.0000    0.36892   0.24630   0.46770   Biso      1.000     C          0.265971  
         C11       1.0000    0.93740   0.07610   0.32140   Biso      1.000     C          -0.10248  
         C12       1.0000    0.91210   0.15980   0.37140   Biso      1.000     C          -0.137239           
         C13       1.0000    0.97821   0.90110   0.33060   Biso      1.000     C          0.552225  
         C14       1.0000    0.47821   0.90110   0.66940   Biso      1.000     C          0.552224  
         C15       1.0000    0.74483   0.41360   0.81030   Biso      1.000     C          0.096085  
         C16       1.0000    0.74362   0.41000   0.92630   Biso      1.000     C          -0.162564           
         C17       1.0000    0.23430   0.58520   0.82620   Biso      1.000     C          -0.161181           
         C18       1.0000    0.25638   0.59000   0.07370   Biso      1.000     C          -0.162564           
         C19       1.0000    0.76570   0.41480   0.17380   Biso      1.000     C          -0.161181           
         C20       1.0000    0.25517   0.58640   0.18970   Biso      1.000     C          0.096085  
         C21       1.0000    0.02179   0.09890   0.66940   Biso      1.000     C          0.552224  
         C22       1.0000    0.89293   0.34540   0.01990   Biso      1.000     C          0.034399  
         C23       1.0000    0.76520   0.41780   0.28940   Biso      1.000     C          0.099452  
         C24       1.0000    0.06260   0.92390   0.67860   Biso      1.000     C          -0.102484           
         C25       1.0000    0.05494   0.01280   0.61900   Biso      1.000     C          7.6e-05   
         C26       1.0000    0.07528   0.01910   0.51110   Biso      1.000     C          -0.101131           
         C27       1.0000    0.63108   0.75370   0.53230   Biso      1.000     C          0.26597   
         C28       1.0000    0.23480   0.58220   0.71060   Biso      1.000     C          0.099452  
         C29       1.0000    0.10089   0.93530   0.46070   Biso      1.000     C          -0.147126           
         C30       1.0000    0.24483   0.41360   0.18970   Biso      1.000     C          0.096085  
         C31       1.0000    0.24362   0.41000   0.07370   Biso      1.000     C          -0.162564           
         C32       1.0000    0.89911   0.43530   0.96070   Biso      1.000     C          -0.147124           
         C33       1.0000    0.92472   0.51910   0.01110   Biso      1.000     C          -0.101134           
         C34       1.0000    0.94506   0.51280   0.11900   Biso      1.000     C          7.6e-05   
         C35       1.0000    0.73480   0.91780   0.21060   Biso      1.000     C          0.099451  
         C36       1.0000    0.93740   0.42390   0.17860   Biso      1.000     C          -0.102481           
         C37       1.0000    0.73430   0.91480   0.32620   Biso      1.000     C          -0.161181           
         C38       1.0000    0.75638   0.91000   0.57370   Biso      1.000     C          -0.162564           
         C39       1.0000    0.91210   0.34020   0.12860   Biso      1.000     C          -0.137235           
         C40       1.0000    0.75517   0.91360   0.68970   Biso      1.000     C          0.096085  
         C41       1.0000    0.52179   0.40110   0.16940   Biso      1.000     C          0.552224  
         C42       1.0000    0.58790   0.65980   0.12860   Biso      1.000     C          -0.137238           
         C43       1.0000    0.97821   0.59890   0.16940   Biso      1.000     C          0.552224  
         C44       1.0000    0.89911   0.06470   0.53930   Biso      1.000     C          -0.147126           
         C45       1.0000    0.56260   0.57610   0.17860   Biso      1.000     C          -0.102484           
         C46       1.0000    0.57528   0.48090   0.01110   Biso      1.000     C          -0.101134           
         C47       1.0000    0.74483   0.08640   0.68970   Biso      1.000     C          0.096085  
         C48       1.0000    0.60089   0.56470   0.96070   Biso      1.000     C          -0.147126           
         C49       1.0000    0.60707   0.65460   0.01990   Biso      1.000     C          0.034403  
         C50       1.0000    0.63108   0.74630   0.96770   Biso      1.000     C          0.26597   
         C51       1.0000    0.74362   0.09000   0.57370   Biso      1.000     C          -0.162564           
         C52       1.0000    0.76570   0.08520   0.32620   Biso      1.000     C          -0.161181           
         C53       1.0000    0.76520   0.08220   0.21060   Biso      1.000     C          0.099452  
         C54       1.0000    0.26520   0.41780   0.71060   Biso      1.000     C          0.099451  
         C55       1.0000    0.86892   0.24630   0.53230   Biso      1.000     C          0.265972  
         C56       1.0000    0.26570   0.41480   0.82620   Biso      1.000     C          -0.161181           
         C57       1.0000    0.89293   0.15460   0.48010   Biso      1.000     C          0.034404  
         C58       1.0000    0.55494   0.48720   0.11900   Biso      1.000     C          7.9e-05   
         C59       1.0000    0.10707   0.84540   0.51990   Biso      1.000     C          0.034404  
         C60       1.0000    0.86892   0.25370   0.96770   Biso      1.000     C          0.26597   
         C61       1.0000    0.60707   0.84540   0.48010   Biso      1.000     C          0.034399  
         C62       1.0000    0.10707   0.65460   0.98010   Biso      1.000     C          0.034399  
         C63       1.0000    0.13108   0.74630   0.03230   Biso      1.000     C          0.265971  
         C64       1.0000    0.73430   0.58520   0.17380   Biso      1.000     C          -0.161181           
         C65       1.0000    0.13108   0.75370   0.46770   Biso      1.000     C          0.26597   
         C66       1.0000    0.25000   0.00000   0.48740   Biso      1.000     C          0.125593  
         C67       1.0000    0.26520   0.08220   0.78940   Biso      1.000     C          0.099451  
         C68       1.0000    0.25000   0.00000   0.61220   Biso      1.000     C          0.119033  
         C69       1.0000    0.26570   0.08520   0.67380   Biso      1.000     C          -0.16118  
         C70       1.0000    0.24362   0.09000   0.42630   Biso      1.000     C          -0.162564           
         C71       1.0000    0.25000   0.50000   0.01260   Biso      1.000     C          0.125593  
         C72       1.0000    0.24483   0.08640   0.31030   Biso      1.000     C          0.096085  
         C73       1.0000    0.10089   0.56470   0.03930   Biso      1.000     C          -0.147124           
         C74       1.0000    0.47821   0.59890   0.83060   Biso      1.000     C          0.552225  
         C75       1.0000    0.41210   0.34020   0.87140   Biso      1.000     C          -0.137238           
         C76       1.0000    0.43740   0.42390   0.82140   Biso      1.000     C          -0.102484           
         C77       1.0000    0.44506   0.51280   0.88100   Biso      1.000     C          7.6e-05   
         C78       1.0000    0.75000   0.00000   0.51260   Biso      1.000     C          0.125593  
         C79       1.0000    0.42472   0.51910   0.98890   Biso      1.000     C          -0.101131           
         C80       1.0000    0.75000   0.00000   0.38780   Biso      1.000     C          0.119034  
         C81       1.0000    0.39911   0.43530   0.03930   Biso      1.000     C          -0.147126           
         C82       1.0000    0.39293   0.34540   0.98010   Biso      1.000     C          0.034403  
         C83       1.0000    0.36892   0.25370   0.03230   Biso      1.000     C          0.265968  
         C84       1.0000    0.75000   0.50000   0.98740   Biso      1.000     C          0.125593  
         C85       1.0000    0.75000   0.50000   0.11220   Biso      1.000     C          0.119034  
         C86       1.0000    0.25000   0.50000   0.88780   Biso      1.000     C          0.119034  
         C87       1.0000    0.75638   0.59000   0.92630   Biso      1.000     C          -0.162564           
         C88       1.0000    0.73480   0.58220   0.28940   Biso      1.000     C          0.099452  
         C89       1.0000    0.25638   0.91000   0.42630   Biso      1.000     C          -0.162564           
         C90       1.0000    0.58790   0.84020   0.37140   Biso      1.000     C          -0.137235           
         C91       1.0000    0.23430   0.91480   0.67380   Biso      1.000     C          -0.161181           
         C92       1.0000    0.02179   0.40110   0.83060   Biso      1.000     C          0.552224  
         C93       1.0000    0.52179   0.09890   0.33060   Biso      1.000     C          0.552224  
         C94       1.0000    0.23480   0.91780   0.78940   Biso      1.000     C          0.099452  
         C95       1.0000    0.56260   0.92390   0.32140   Biso      1.000     C          -0.102484           
         C96       1.0000    0.07528   0.48090   0.98890   Biso      1.000     C          -0.101134           
         C97       1.0000    0.08790   0.65980   0.87140   Biso      1.000     C          -0.137235           
         C98       1.0000    0.55494   0.01280   0.38100   Biso      1.000     C          7.6e-05   
         C99       1.0000    0.60089   0.93530   0.53930   Biso      1.000     C          -0.147124           
         C100      1.0000    0.75517   0.58640   0.81030   Biso      1.000     C          0.096085  
         C101      1.0000    0.06260   0.57610   0.82140   Biso      1.000     C          -0.102484           
         C102      1.0000    0.05494   0.48720   0.88100   Biso      1.000     C          8e-05     
         C103      1.0000    0.57528   0.01910   0.48890   Biso      1.000     C          -0.101131           
         C104      1.0000    0.25517   0.91360   0.31030   Biso      1.000     C          0.096084  
         Cd1       1.0000    0.75000   0.50000   0.55118   Biso      1.000     Cd          0.776601  
         Cd2       1.0000    0.45754   0.25000   0.25000   Biso      1.000     Cd          0.874375  
         Cd3       1.0000    0.75000   0.00000   0.94882   Biso      1.000     Cd          0.776596  
         Cd4       1.0000    0.54246   0.75000   0.75000   Biso      1.000     Cd          0.874373  
         Cd5       1.0000    0.04246   0.75000   0.25000   Biso      1.000     Cd          0.874377  
         Cd6       1.0000    0.95754   0.25000   0.75000   Biso      1.000     Cd          0.874375  
         Cd7       1.0000    0.25000   0.50000   0.44882   Biso      1.000     Cd          0.7766    
         Cd8       1.0000    0.25000   0.00000   0.05118   Biso      1.000     Cd          0.776605  
         H1        1.0000    0.59190   0.78000   0.33100   Biso      1.000     H          0.109795  
         H2        1.0000    0.92810   0.92010   0.52860   Biso      1.000     H          0.121761  
         H3        1.0000    0.88620   0.43990   0.88730   Biso      1.000     H          0.1101    
         H4        1.0000    0.76140   0.65180   0.96310   Biso      1.000     H          0.132413  
         H5        1.0000    0.92810   0.57990   0.97140   Biso      1.000     H          0.121761  
         H6        1.0000    0.88620   0.06010   0.61270   Biso      1.000     H          0.110101  
         H7        1.0000    0.61380   0.93990   0.61270   Biso      1.000     H          0.110101  
         H8        1.0000    0.94930   0.08010   0.24720   Biso      1.000     H          0.122673  
         H9        1.0000    0.77590   0.35960   0.32830   Biso      1.000     H          0.084833  
         H10       1.0000    0.94930   0.41990   0.25280   Biso      1.000     H          0.122673  
         H11       1.0000    0.72340   0.64440   0.13700   Biso      1.000     H          0.125053  
         H12       1.0000    0.72410   0.64040   0.32830   Biso      1.000     H          0.084833  
         H13       1.0000    0.74190   0.14740   0.72910   Biso      1.000     H          0.089039  
         H14       1.0000    0.90810   0.28000   0.16900   Biso      1.000     H          0.109795  
         H15       1.0000    0.77660   0.35560   0.13700   Biso      1.000     H          0.125053  
         H16       1.0000    0.90810   0.22000   0.33100   Biso      1.000     H          0.109795  
         H17       1.0000    0.55070   0.91990   0.24720   Biso      1.000     H          0.122673  
         H18       1.0000    0.77590   0.14040   0.17170   Biso      1.000     H          0.084833  
         H19       1.0000    0.74190   0.35260   0.77090   Biso      1.000     H          0.089039  
         H20       1.0000    0.77660   0.14440   0.36300   Biso      1.000     H          0.125054  
         H21       1.0000    0.73860   0.34820   0.96310   Biso      1.000     H          0.132413  
         H22       1.0000    0.73860   0.15180   0.53690   Biso      1.000     H          0.132413  
         H23       1.0000    0.57190   0.07990   0.52860   Biso      1.000     H          0.12176   
         H24       1.0000    0.75810   0.64740   0.77090   Biso      1.000     H          0.089039  
         H25       1.0000    0.57190   0.42010   0.97140   Biso      1.000     H          0.121761  
         H26       1.0000    0.24190   0.35260   0.22910   Biso      1.000     H          0.089039  
         H27       1.0000    0.22340   0.85560   0.63700   Biso      1.000     H          0.125053  
         H28       1.0000    0.40810   0.22000   0.66900   Biso      1.000     H          0.109795  
         H29       1.0000    0.44930   0.08010   0.75280   Biso      1.000     H          0.122673  
         H30       1.0000    0.42810   0.92010   0.47140   Biso      1.000     H          0.12176   
         H31       1.0000    0.38620   0.06010   0.38730   Biso      1.000     H          0.110101  
         H32       1.0000    0.27660   0.14440   0.63700   Biso      1.000     H          0.125053  
         H33       1.0000    0.27590   0.14040   0.82830   Biso      1.000     H          0.084833  
         H34       1.0000    0.22410   0.64040   0.67170   Biso      1.000     H          0.084833  
         H35       1.0000    0.22340   0.64440   0.86300   Biso      1.000     H          0.125053  
         H36       1.0000    0.26140   0.65180   0.03690   Biso      1.000     H          0.132413  
         H37       1.0000    0.25810   0.64740   0.22910   Biso      1.000     H          0.089039  
         H38       1.0000    0.09190   0.78000   0.66900   Biso      1.000     H          0.109795  
         H39       1.0000    0.05070   0.91990   0.75280   Biso      1.000     H          0.122673  
         H40       1.0000    0.07190   0.07990   0.47140   Biso      1.000     H          0.12176   
         H41       1.0000    0.11380   0.56010   0.11270   Biso      1.000     H          0.1101    
         H42       1.0000    0.07190   0.42010   0.02860   Biso      1.000     H          0.121761  
         H43       1.0000    0.05070   0.58010   0.74720   Biso      1.000     H          0.122673  
         H44       1.0000    0.09190   0.72000   0.83100   Biso      1.000     H          0.109795  
         H45       1.0000    0.11380   0.93990   0.38730   Biso      1.000     H          0.1101    
         H46       1.0000    0.25810   0.85260   0.27090   Biso      1.000     H          0.089039  
         H47       1.0000    0.26140   0.84820   0.46310   Biso      1.000     H          0.132413  
         H48       1.0000    0.23860   0.34820   0.03690   Biso      1.000     H          0.132412  
         H49       1.0000    0.27660   0.35560   0.86300   Biso      1.000     H          0.125053  
         H50       1.0000    0.22410   0.85960   0.82830   Biso      1.000     H          0.084833  
         H51       1.0000    0.75810   0.85260   0.72910   Biso      1.000     H          0.089039  
         H52       1.0000    0.55070   0.58010   0.25280   Biso      1.000     H          0.122673  
         H53       1.0000    0.24190   0.14740   0.27090   Biso      1.000     H          0.089039  
         H54       1.0000    0.40810   0.28000   0.83100   Biso      1.000     H          0.109795  
         H55       1.0000    0.44930   0.41990   0.74720   Biso      1.000     H          0.122673  
         H56       1.0000    0.27590   0.35960   0.67170   Biso      1.000     H          0.084833  
         H57       1.0000    0.61380   0.56010   0.88730   Biso      1.000     H          0.1101    
         H58       1.0000    0.23860   0.15180   0.46310   Biso      1.000     H          0.132412  
         H59       1.0000    0.42810   0.57990   0.02860   Biso      1.000     H          0.12176   
         H60       1.0000    0.59190   0.72000   0.16900   Biso      1.000     H          0.109795  
         H61       1.0000    0.72410   0.85960   0.17170   Biso      1.000     H          0.084833  
         H62       1.0000    0.72340   0.85560   0.36300   Biso      1.000     H          0.125053  
         H63       1.0000    0.76140   0.84820   0.53690   Biso      1.000     H          0.132413  
         H64       1.0000    0.38620   0.43990   0.11270   Biso      1.000     H          0.1101    
         N1        1.0000    0.25000   0.50000   0.24840   Biso      1.000     N          -0.233002           
         N2        1.0000    0.35518   0.12860   0.14400   Biso      1.000     N          -0.084408           
         N3        1.0000    0.31981   0.12260   0.06110   Biso      1.000     N          -0.096859           
         N4        1.0000    0.32669   0.20010   0.98830   Biso      1.000     N          -0.311722           
         N5        1.0000    0.11260   0.78920   0.12600   Biso      1.000     N          -0.224061           
         N6        1.0000    0.75000   0.50000   0.34870   Biso      1.000     N          -0.231247           
         N7        1.0000    0.75000   0.50000   0.75160   Biso      1.000     N          -0.233003           
         N8        1.0000    0.38740   0.21080   0.12600   Biso      1.000     N          -0.224035           
         N9        1.0000    0.18019   0.87740   0.06110   Biso      1.000     N          -0.096909           
         N10       1.0000    0.17331   0.79990   0.98830   Biso      1.000     N          -0.311716           
         N11       1.0000    0.25000   0.00000   0.25160   Biso      1.000     N          -0.233003           
         N12       1.0000    0.25000   0.00000   0.84870   Biso      1.000     N          -0.231247           
         N13       1.0000    0.75000   0.00000   0.15130   Biso      1.000     N          -0.231247           
         N14       1.0000    0.75000   0.00000   0.74840   Biso      1.000     N          -0.233002           
         N15       1.0000    0.25000   0.50000   0.65130   Biso      1.000     N          -0.231247           
         N16       1.0000    0.14482   0.87140   0.14400   Biso      1.000     N          -0.084343           
         N17       1.0000    0.85518   0.12860   0.85600   Biso      1.000     N          -0.08441  
         N18       1.0000    0.67331   0.70010   0.48830   Biso      1.000     N          -0.311735           
         N19       1.0000    0.38740   0.28920   0.37400   Biso      1.000     N          -0.224056           
         N20       1.0000    0.88740   0.28920   0.62600   Biso      1.000     N          -0.224056           
         N21       1.0000    0.64482   0.87140   0.85600   Biso      1.000     N          -0.084411           
         N22       1.0000    0.35518   0.37140   0.35600   Biso      1.000     N          -0.084388           
         N23       1.0000    0.31981   0.37740   0.43890   Biso      1.000     N          -0.096861           
         N24       1.0000    0.32669   0.29990   0.51170   Biso      1.000     N          -0.311722           
         N25       1.0000    0.61260   0.78920   0.87400   Biso      1.000     N          -0.224036           
         N26       1.0000    0.82669   0.29990   0.48830   Biso      1.000     N          -0.311741           
         N27       1.0000    0.67331   0.79990   0.01170   Biso      1.000     N          -0.311741           
         N28       1.0000    0.82669   0.20010   0.01170   Biso      1.000     N          -0.311741           
         N29       1.0000    0.81981   0.12260   0.93890   Biso      1.000     N          -0.096838           
         N30       1.0000    0.68019   0.87740   0.93890   Biso      1.000     N          -0.096838           
         N31       1.0000    0.88740   0.21080   0.87400   Biso      1.000     N          -0.224035           
         N32       1.0000    0.68019   0.62260   0.56110   Biso      1.000     N          -0.096887           
         N33       1.0000    0.64482   0.62860   0.64400   Biso      1.000     N          -0.084365           
         N34       1.0000    0.61260   0.71080   0.62600   Biso      1.000     N          -0.22404  
         N35       1.0000    0.11260   0.71080   0.37400   Biso      1.000     N          -0.224057           
         N36       1.0000    0.14482   0.62860   0.35600   Biso      1.000     N          -0.084388           
         N37       1.0000    0.18019   0.62260   0.43890   Biso      1.000     N          -0.096861           
         N38       1.0000    0.17331   0.70010   0.51170   Biso      1.000     N          -0.311722           
         N39       1.0000    0.85518   0.37140   0.64400   Biso      1.000     N          -0.084391           
         N40       1.0000    0.81981   0.37740   0.56110   Biso      1.000     N          -0.096841           
         O1        1.0000    0.00303   0.58480   0.26050   Biso      1.000     O          -0.56268  
         O2        1.0000    0.50303   0.58480   0.73950   Biso      1.000     O          -0.56268  
         O3        1.0000    0.98075   0.68170   0.11670   Biso      1.000     O          -0.568124           
         O4        1.0000    0.49697   0.41520   0.26050   Biso      1.000     O          -0.562679           
         O5        1.0000    0.01925   0.18170   0.61670   Biso      1.000     O          -0.568124           
         O6        1.0000    0.98075   0.81830   0.38330   Biso      1.000     O          -0.568124           
         O7        1.0000    0.00303   0.91520   0.23950   Biso      1.000     O          -0.56268  
         O8        1.0000    0.99697   0.08480   0.76050   Biso      1.000     O          -0.56268  
         O9        1.0000    0.01925   0.31830   0.88330   Biso      1.000     O          -0.568124           
         O10       1.0000    0.99697   0.41520   0.73950   Biso      1.000     O          -0.562679           
         O11       1.0000    0.50303   0.91520   0.76050   Biso      1.000     O          -0.562679           
         O12       1.0000    0.48075   0.81830   0.61670   Biso      1.000     O          -0.568124           
         O13       1.0000    0.51925   0.18170   0.38330   Biso      1.000     O          -0.568124           
         O14       1.0000    0.49697   0.08480   0.23950   Biso      1.000     O          -0.56268  
         O15       1.0000    0.51925   0.31830   0.11670   Biso      1.000     O          -0.568124           
         O16       1.0000    0.48075   0.68170   0.88330   Biso      1.000     O          -0.568124 