
##########################################################################
#               Crystallographic Information Format file
#               Produced by PyCifRW module
#
#  This is a CIF file.  CIF has been adopted by the International
#  Union of Crystallography as the standard for data archiving and
#  transmission.
#
#  For information on this file format, follow the CIF links at
#  http://www.iucr.org
##########################################################################

data_image0

_cell_length_a                          11.3574
_cell_length_b                          11.3574
_cell_length_c                          16.028
_cell_angle_alpha                       85.2079
_cell_angle_beta                        85.2079
_cell_angle_gamma                       61.0372
_symmetry_space_group_name_H-M          'P 1'
_symmetry_int_tables_number             1
loop_
  _symmetry_equiv_pos_as_xyz
         'x, y, z' 
loop_
  _atom_site_label
  _atom_site_occupancy
  _atom_site_fract_x
  _atom_site_fract_y
  _atom_site_fract_z
  _atom_site_thermal_displace_type
  _atom_site_B_iso_or_equiv
  _atom_site_type_symbol
  _atom_site_charge
         C1        1.0000    0.46790   0.05570   0.88140   Biso      1.000     C          -0.082513           
         C2        1.0000    0.55860   0.97900   0.65170   Biso      1.000     C          0.689337  
         C3        1.0000    0.47760   0.99960   0.73450   Biso      1.000     C          -0.258342           
         C4        1.0000    0.76070   0.85650   0.87960   Biso      1.000     C          0.6386149999999999  
         C5        1.0000    0.65650   0.85770   0.82530   Biso      1.000     C          -0.258287           
         C6        1.0000    0.40070   0.41010   0.74560   Biso      1.000     C          0.6194350000000001  
         C7        1.0000    0.43320   0.39020   0.83710   Biso      1.000     C          -0.26708000000000004          
         C8        1.0000    0.58190   0.24090   0.94020   Biso      1.000     C          -0.288642           
         C9        1.0000    0.20460   0.40800   0.38120   Biso      1.000     C          -0.11335799999999999          
         C10       1.0000    0.70950   0.25130   0.91710   Biso      1.000     C          0.709901  
         C11       1.0000    0.02100   0.44140   0.84830   Biso      1.000     C          0.689338  
         C12       1.0000    0.00040   0.52240   0.76550   Biso      1.000     C          -0.258342           
         C13       1.0000    0.14350   0.23930   0.62040   Biso      1.000     C          0.6386149999999999  
         C14       1.0000    0.14230   0.34350   0.67470   Biso      1.000     C          -0.258287           
         C15       1.0000    0.58990   0.59930   0.75440   Biso      1.000     C          0.6194350000000001  
         C16       1.0000    0.60980   0.56680   0.66290   Biso      1.000     C          -0.26708000000000004          
         C17       1.0000    0.75910   0.41810   0.55980   Biso      1.000     C          -0.288644           
         C18       1.0000    0.40800   0.20460   0.88120   Biso      1.000     C          -0.11335799999999999          
         C19       1.0000    0.94430   0.53210   0.61860   Biso      1.000     C          -0.082513           
         C20       1.0000    0.05570   0.46790   0.38140   Biso      1.000     C          -0.082513           
         C21       1.0000    0.24090   0.58190   0.44020   Biso      1.000     C          -0.288644           
         C22       1.0000    0.44140   0.02100   0.34830   Biso      1.000     C          0.689338  
         C23       1.0000    0.52240   0.00040   0.26550   Biso      1.000     C          -0.258342           
         C24       1.0000    0.23930   0.14350   0.12040   Biso      1.000     C          0.6386149999999999  
         C25       1.0000    0.34350   0.14230   0.17470   Biso      1.000     C          -0.258287           
         C26       1.0000    0.59930   0.58990   0.25440   Biso      1.000     C          0.6194350000000001  
         C27       1.0000    0.56680   0.60980   0.16290   Biso      1.000     C          -0.26708000000000004          
         C28       1.0000    0.41810   0.75910   0.05980   Biso      1.000     C          -0.288642           
         C29       1.0000    0.25130   0.70950   0.41710   Biso      1.000     C          0.709902  
         C30       1.0000    0.29050   0.74870   0.08290   Biso      1.000     C          0.709901  
         C31       1.0000    0.59200   0.79540   0.11880   Biso      1.000     C          -0.11335799999999999          
         C32       1.0000    0.97900   0.55860   0.15170   Biso      1.000     C          0.689337  
         C33       1.0000    0.99960   0.47760   0.23450   Biso      1.000     C          -0.258342           
         C34       1.0000    0.85650   0.76070   0.37960   Biso      1.000     C          0.6386149999999999  
         C35       1.0000    0.85770   0.65650   0.32530   Biso      1.000     C          -0.258287           
         C36       1.0000    0.41010   0.40070   0.24560   Biso      1.000     C          0.619436  
         C37       1.0000    0.39020   0.43320   0.33710   Biso      1.000     C          -0.26708000000000004          
         C38       1.0000    0.53210   0.94430   0.11860   Biso      1.000     C          -0.082513           
         C39       1.0000    0.79540   0.59200   0.61880   Biso      1.000     C          -0.11335799999999999          
         C40       1.0000    0.74870   0.29050   0.58290   Biso      1.000     C          0.709902  
         Ca1       1.0000    0.88044   0.31224   0.74827   Biso      1.000     Ca          1.2838690000000001  
         Ca2       1.0000    0.68776   0.11956   0.75173   Biso      1.000     Ca          1.283871  
         Ca3       1.0000    0.11956   0.68776   0.25173   Biso      1.000     Ca          1.2838690000000001  
         Ca4       1.0000    0.31224   0.88044   0.24827   Biso      1.000     Ca          1.283872  
         H1        1.0000    0.79830   0.61130   0.34720   Biso      1.000     H          0.132778  
         H2        1.0000    0.49990   0.43990   0.84070   Biso      1.000     H          0.11809700000000001           
         H3        1.0000    0.62420   0.15300   0.97890   Biso      1.000     H          0.13638599999999998           
         H4        1.0000    0.53700   0.29820   0.98190   Biso      1.000     H          0.136379  
         H5        1.0000    0.53810   0.01610   0.93750   Biso      1.000     H          0.07298099999999999           
         H6        1.0000    0.40210   0.02490   0.89140   Biso      1.000     H          0.101573  
         H7        1.0000    0.34540   0.24680   0.83930   Biso      1.000     H          0.10730999999999999           
         H8        1.0000    0.36310   0.23810   0.94570   Biso      1.000     H          0.089335  
         H9        1.0000    0.90170   0.60050   0.77960   Biso      1.000     H          0.132418  
         H10       1.0000    0.45270   0.35350   0.36610   Biso      1.000     H          0.094325  
         H11       1.0000    0.54730   0.64650   0.63390   Biso      1.000     H          0.094325  
         H12       1.0000    0.20170   0.38870   0.65280   Biso      1.000     H          0.132778  
         H13       1.0000    0.35350   0.45270   0.86610   Biso      1.000     H          0.094325  
         H14       1.0000    0.56010   0.50010   0.65930   Biso      1.000     H          0.11809700000000001           
         H15       1.0000    0.84700   0.37580   0.52110   Biso      1.000     H          0.13638699999999998           
         H16       1.0000    0.70180   0.46300   0.51810   Biso      1.000     H          0.136379  
         H17       1.0000    0.98390   0.46190   0.56250   Biso      1.000     H          0.07298099999999999           
         H18       1.0000    0.97510   0.59790   0.60860   Biso      1.000     H          0.101573  
         H19       1.0000    0.75320   0.65460   0.66070   Biso      1.000     H          0.10730999999999999           
         H20       1.0000    0.76190   0.63690   0.55430   Biso      1.000     H          0.089335  
         H21       1.0000    0.18160   0.29300   0.73090   Biso      1.000     H          0.115159  
         H22       1.0000    0.61130   0.79830   0.84720   Biso      1.000     H          0.132778  
         H23       1.0000    0.06920   0.56100   0.75180   Biso      1.000     H          0.129355  
         H24       1.0000    0.93080   0.43900   0.24820   Biso      1.000     H          0.129355  
         H25       1.0000    0.81840   0.70700   0.26910   Biso      1.000     H          0.115159  
         H26       1.0000    0.70700   0.81840   0.76910   Biso      1.000     H          0.115159  
         H27       1.0000    0.09830   0.39950   0.22040   Biso      1.000     H          0.132418  
         H28       1.0000    0.63690   0.76190   0.05430   Biso      1.000     H          0.089336  
         H29       1.0000    0.65460   0.75320   0.16070   Biso      1.000     H          0.10730999999999999           
         H30       1.0000    0.59790   0.97510   0.10860   Biso      1.000     H          0.101573  
         H31       1.0000    0.46300   0.70180   0.01810   Biso      1.000     H          0.136378  
         H32       1.0000    0.37580   0.84700   0.02110   Biso      1.000     H          0.13638599999999998           
         H33       1.0000    0.50010   0.56010   0.15930   Biso      1.000     H          0.11809700000000001           
         H34       1.0000    0.64650   0.54730   0.13390   Biso      1.000     H          0.094325  
         H35       1.0000    0.38870   0.20170   0.15280   Biso      1.000     H          0.132778  
         H36       1.0000    0.29300   0.18160   0.23090   Biso      1.000     H          0.115159  
         H37       1.0000    0.46190   0.98390   0.06250   Biso      1.000     H          0.07298099999999999           
         H38       1.0000    0.60050   0.90170   0.27960   Biso      1.000     H          0.132418  
         H39       1.0000    0.56100   0.06920   0.25180   Biso      1.000     H          0.129355  
         H40       1.0000    0.43900   0.93080   0.74820   Biso      1.000     H          0.129355  
         H41       1.0000    0.39950   0.09830   0.72040   Biso      1.000     H          0.132418  
         H42       1.0000    0.24680   0.34540   0.33930   Biso      1.000     H          0.10731099999999999           
         H43       1.0000    0.02490   0.40210   0.39140   Biso      1.000     H          0.101573  
         H44       1.0000    0.23810   0.36310   0.44570   Biso      1.000     H          0.089335  
         H45       1.0000    0.29820   0.53700   0.48190   Biso      1.000     H          0.136379  
         H46       1.0000    0.15300   0.62420   0.47890   Biso      1.000     H          0.13638699999999998           
         H47       1.0000    0.43990   0.49990   0.34070   Biso      1.000     H          0.11809700000000001           
         H48       1.0000    0.01610   0.53810   0.43750   Biso      1.000     H          0.07298099999999999           
         N1        1.0000    0.44610   0.00330   0.19530   Biso      1.000     N          -0.143398           
         N2        1.0000    0.55390   0.99670   0.80470   Biso      1.000     N          -0.143397           
         N3        1.0000    0.49220   0.74600   0.13330   Biso      1.000     N          -0.09473999999999999          
         N4        1.0000    0.99670   0.55390   0.30470   Biso      1.000     N          -0.143397           
         N5        1.0000    0.74600   0.49220   0.63330   Biso      1.000     N          -0.09473999999999999          
         N6        1.0000    0.00330   0.44610   0.69530   Biso      1.000     N          -0.143397           
         N7        1.0000    0.50780   0.25400   0.86670   Biso      1.000     N          -0.09473999999999999          
         N8        1.0000    0.25400   0.50780   0.36670   Biso      1.000     N          -0.094739           
         O1        1.0000    0.51930   0.30270   0.22340   Biso      1.000     O          -0.628369           
         O2        1.0000    0.23570   0.75390   0.34150   Biso      1.000     O          -0.68087  
         O3        1.0000    0.27270   0.76290   0.47460   Biso      1.000     O          -0.6880890000000001           
         O4        1.0000    0.95770   0.77810   0.37380   Biso      1.000     O          -0.6480319999999999           
         O5        1.0000    0.52490   0.94030   0.59210   Biso      1.000     O          -0.690447           
         O6        1.0000    0.31340   0.47320   0.20050   Biso      1.000     O          -0.6674899999999999           
         O7        1.0000    0.75300   0.82540   0.42550   Biso      1.000     O          -0.680968           
         O8        1.0000    0.52680   0.68660   0.29950   Biso      1.000     O          -0.6674899999999999           
         O9        1.0000    0.94030   0.52490   0.09210   Biso      1.000     O          -0.690446           
         O10       1.0000    0.24610   0.76430   0.15850   Biso      1.000     O          -0.68087  
         O11       1.0000    0.23710   0.72730   0.02540   Biso      1.000     O          -0.6880890000000001           
         O12       1.0000    0.17460   0.24700   0.07450   Biso      1.000     O          -0.680968           
         O13       1.0000    0.22190   0.04230   0.12620   Biso      1.000     O          -0.6480319999999999           
         O14       1.0000    0.69730   0.48070   0.27660   Biso      1.000     O          -0.628369           
         O15       1.0000    0.65200   0.00740   0.64580   Biso      1.000     O          -0.677172           
         O16       1.0000    0.00740   0.65200   0.14580   Biso      1.000     O          -0.677172           
         O17       1.0000    0.82540   0.75300   0.92550   Biso      1.000     O          -0.680968           
         O18       1.0000    0.47510   0.05970   0.40790   Biso      1.000     O          -0.690447           
         O19       1.0000    0.30270   0.51930   0.72340   Biso      1.000     O          -0.628369           
         O20       1.0000    0.34800   0.99260   0.35420   Biso      1.000     O          -0.677172           
         O21       1.0000    0.76430   0.24610   0.65850   Biso      1.000     O          -0.680869           
         O22       1.0000    0.72730   0.23710   0.52540   Biso      1.000     O          -0.6880890000000001           
         O23       1.0000    0.68660   0.52680   0.79950   Biso      1.000     O          -0.6674899999999999           
         O24       1.0000    0.77810   0.95770   0.87380   Biso      1.000     O          -0.6480319999999999           
         O25       1.0000    0.04230   0.22190   0.62620   Biso      1.000     O          -0.6480319999999999           
         O26       1.0000    0.48070   0.69730   0.77660   Biso      1.000     O          -0.628369           
         O27       1.0000    0.99260   0.34800   0.85420   Biso      1.000     O          -0.677172           
         O28       1.0000    0.05970   0.47510   0.90790   Biso      1.000     O          -0.690447           
         O29       1.0000    0.75390   0.23570   0.84150   Biso      1.000     O          -0.68087  
         O30       1.0000    0.76290   0.27270   0.97460   Biso      1.000     O          -0.6880890000000001           
         O31       1.0000    0.47320   0.31340   0.70050   Biso      1.000     O          -0.6674899999999999           
         O32       1.0000    0.24700   0.17460   0.57450   Biso      1.000     O          -0.680968           
         Sr1       1.0000    0.66077   0.05785   0.48688   Biso      1.000     Sr          1.56054   
         Sr2       1.0000    0.94215   0.33923   0.01312   Biso      1.000     Sr          1.560539  
         Sr3       1.0000    0.33923   0.94215   0.51312   Biso      1.000     Sr          1.560539  
         Sr4       1.0000    0.05785   0.66077   0.98688   Biso      1.000     Sr          1.56054 