
##########################################################################
#               Crystallographic Information Format file
#               Produced by PyCifRW module
#
#  This is a CIF file.  CIF has been adopted by the International
#  Union of Crystallography as the standard for data archiving and
#  transmission.
#
#  For information on this file format, follow the CIF links at
#  http://www.iucr.org
##########################################################################

data_image0

_cell_length_a                          6.072
_cell_length_b                          9.53
_cell_length_c                          19.844
_cell_angle_alpha                       90
_cell_angle_beta                        90
_cell_angle_gamma                       90
_symmetry_space_group_name_H-M          'P 1'
_symmetry_int_tables_number             1
loop_
  _symmetry_equiv_pos_as_xyz
         'x, y, z' 
loop_
  _atom_site_label
  _atom_site_occupancy
  _atom_site_fract_x
  _atom_site_fract_y
  _atom_site_fract_z
  _atom_site_thermal_displace_type
  _atom_site_B_iso_or_equiv
  _atom_site_type_symbol
  _atom_site_charge
         C1        1.0000    0.88890   0.82970   0.80560   Biso      1.000     C          0.694363  
         C2        1.0000    0.55590   0.45910   0.68730   Biso      1.000     C          0.617732  
         C3        1.0000    0.49760   0.49220   0.43710   Biso      1.000     C          0.613616  
         C4        1.0000    0.71290   0.12540   0.37200   Biso      1.000     C          -0.048003           
         C5        1.0000    0.91860   0.06120   0.37430   Biso      1.000     C          -0.041462           
         C6        1.0000    0.00740   0.02360   0.43600   Biso      1.000     C          -0.102105           
         C7        1.0000    0.89330   0.04720   0.49600   Biso      1.000     C          -0.033989           
         C8        1.0000    0.11110   0.32970   0.69440   Biso      1.000     C          0.694397  
         C9        1.0000    0.68150   0.10480   0.49320   Biso      1.000     C          -0.064127           
         C10       1.0000    0.61110   0.17030   0.30560   Biso      1.000     C          0.694266  
         C11       1.0000    0.05590   0.04090   0.31270   Biso      1.000     C          0.617557  
         C12       1.0000    0.99760   0.00780   0.56290   Biso      1.000     C          0.613692  
         C13       1.0000    0.78710   0.87460   0.87200   Biso      1.000     C          -0.046768           
         C14       1.0000    0.58140   0.93880   0.87430   Biso      1.000     C          -0.041393           
         C15       1.0000    0.49260   0.97640   0.93600   Biso      1.000     C          -0.102181           
         C16       1.0000    0.59940   0.14850   0.43160   Biso      1.000     C          -0.096747           
         C17       1.0000    0.09940   0.35150   0.56840   Biso      1.000     C          -0.09657  
         C18       1.0000    0.18150   0.39520   0.50680   Biso      1.000     C          -0.065141           
         C19       1.0000    0.39330   0.45280   0.50400   Biso      1.000     C          -0.034114           
         C20       1.0000    0.50240   0.99220   0.06290   Biso      1.000     C          0.613652  
         C21       1.0000    0.44410   0.95910   0.81270   Biso      1.000     C          0.6177    
         C22       1.0000    0.90060   0.85150   0.93160   Biso      1.000     C          -0.096572           
         C23       1.0000    0.28710   0.62540   0.12800   Biso      1.000     C          -0.046798           
         C24       1.0000    0.08140   0.56120   0.12570   Biso      1.000     C          -0.041421           
         C25       1.0000    0.99260   0.52360   0.06400   Biso      1.000     C          -0.102184           
         C26       1.0000    0.10670   0.54720   0.00400   Biso      1.000     C          -0.03406  
         C27       1.0000    0.31850   0.60480   0.00680   Biso      1.000     C          -0.065346           
         C28       1.0000    0.40060   0.64850   0.06840   Biso      1.000     C          -0.096572           
         C29       1.0000    0.38890   0.67030   0.19440   Biso      1.000     C          0.694384  
         C30       1.0000    0.94410   0.54090   0.18730   Biso      1.000     C          0.617713  
         C31       1.0000    0.00240   0.50780   0.93710   Biso      1.000     C          0.613634  
         C32       1.0000    0.21290   0.37460   0.62800   Biso      1.000     C          -0.046805           
         C33       1.0000    0.41860   0.43880   0.62570   Biso      1.000     C          -0.041478           
         C34       1.0000    0.50740   0.47640   0.56400   Biso      1.000     C          -0.10218  
         C35       1.0000    0.60670   0.95280   0.99600   Biso      1.000     C          -0.034091           
         C36       1.0000    0.81850   0.89520   0.99320   Biso      1.000     C          -0.065365           
         Er1       1.0000    0.78610   0.46710   0.81370   Biso      1.000     Er          2.162428  
         Er2       1.0000    0.21390   0.96710   0.68630   Biso      1.000     Er          2.162479  
         Er3       1.0000    0.71390   0.53290   0.31370   Biso      1.000     Er          2.162467  
         Er4       1.0000    0.28610   0.03290   0.18630   Biso      1.000     Er          2.162419  
         H1        1.0000    0.92051   0.88488   0.04117   Biso      1.000     H          0.110838  
         H2        1.0000    0.32317   0.02769   0.93845   Biso      1.000     H          0.113509  
         H3        1.0000    0.43426   0.20514   0.42895   Biso      1.000     H          0.095397  
         H4        1.0000    0.57949   0.11512   0.54117   Biso      1.000     H          0.11085   
         H5        1.0000    0.17683   0.97231   0.43845   Biso      1.000     H          0.113529  
         H6        1.0000    0.93381   0.29516   0.56929   Biso      1.000     H          0.09485   
         H7        1.0000    0.07949   0.38488   0.45883   Biso      1.000     H          0.110718  
         H8        1.0000    0.67683   0.52769   0.56155   Biso      1.000     H          0.113475  
         H9        1.0000    0.56619   0.70484   0.06929   Biso      1.000     H          0.094913  
         H10       1.0000    0.42051   0.61512   0.95883   Biso      1.000     H          0.110857  
         H11       1.0000    0.82317   0.47231   0.06155   Biso      1.000     H          0.113507  
         H12       1.0000    0.06619   0.79516   0.93071   Biso      1.000     H          0.094911  
         O1        1.0000    0.57470   0.30320   0.29780   Biso      1.000     O          -0.702848           
         O2        1.0000    0.42530   0.80320   0.20220   Biso      1.000     O          -0.702751           
         O3        1.0000    0.44160   0.57750   0.23410   Biso      1.000     O          -0.632113           
         O4        1.0000    0.84860   0.42690   0.19660   Biso      1.000     O          -0.615039           
         O5        1.0000    0.92420   0.64040   0.22850   Biso      1.000     O          -0.702455           
         O6        1.0000    0.80140   0.49420   0.93440   Biso      1.000     O          -0.696232           
         O7        1.0000    0.11860   0.49610   0.88490   Biso      1.000     O          -0.672462           
         O8        1.0000    0.07470   0.19680   0.70220   Biso      1.000     O          -0.702785           
         O9        1.0000    0.05840   0.42250   0.73410   Biso      1.000     O          -0.632106           
         O10       1.0000    0.65140   0.57310   0.69660   Biso      1.000     O          -0.615072           
         O11       1.0000    0.57580   0.35960   0.72850   Biso      1.000     O          -0.702493           
         O12       1.0000    0.61860   0.00390   0.11510   Biso      1.000     O          -0.6725   
         O13       1.0000    0.30140   0.00580   0.06560   Biso      1.000     O          -0.696226           
         O14       1.0000    0.42420   0.85960   0.77150   Biso      1.000     O          -0.702457           
         O15       1.0000    0.34860   0.07310   0.80340   Biso      1.000     O          -0.615034           
         O16       1.0000    0.94160   0.92250   0.76590   Biso      1.000     O          -0.632086           
         O17       1.0000    0.92530   0.69680   0.79780   Biso      1.000     O          -0.702736           
         O18       1.0000    0.88140   0.99610   0.61510   Biso      1.000     O          -0.67251  
         O19       1.0000    0.69860   0.50580   0.43440   Biso      1.000     O          -0.69619  
         O20       1.0000    0.07580   0.14040   0.27150   Biso      1.000     O          -0.702546           
         O21       1.0000    0.15140   0.92690   0.30340   Biso      1.000     O          -0.615091           
         O22       1.0000    0.55840   0.07750   0.26590   Biso      1.000     O          -0.63191  
         O23       1.0000    0.38140   0.50390   0.38490   Biso      1.000     O          -0.672667           
         O24       1.0000    0.19860   0.99420   0.56560   Biso      1.000     O          -0.69607 