
##########################################################################
#               Crystallographic Information Format file
#               Produced by PyCifRW module
#
#  This is a CIF file.  CIF has been adopted by the International
#  Union of Crystallography as the standard for data archiving and
#  transmission.
#
#  For information on this file format, follow the CIF links at
#  http://www.iucr.org
##########################################################################

data_image0

_cell_length_a                          17.005
_cell_length_b                          17.539
_cell_length_c                          21.668
_cell_angle_alpha                       92.01
_cell_angle_beta                        104.49
_cell_angle_gamma                       107.16
_symmetry_space_group_name_H-M          'P 1'
_symmetry_int_tables_number             1
loop_
  _symmetry_equiv_pos_as_xyz
         'x, y, z' 
loop_
  _atom_site_label
  _atom_site_occupancy
  _atom_site_fract_x
  _atom_site_fract_y
  _atom_site_fract_z
  _atom_site_thermal_displace_type
  _atom_site_B_iso_or_equiv
  _atom_site_type_symbol
  _atom_site_charge
         C1        1.0000    0.57540   0.69640   0.15810   Biso      1.000     C          0.139773  
         C2        1.0000    0.49000   0.30740   0.90220   Biso      1.000     C          0.5234949999999999  
         C3        1.0000    0.92330   0.46220   0.25430   Biso      1.000     C          -0.11261099999999999          
         C4        1.0000    0.63570   0.26000   0.71100   Biso      1.000     C          0.553654  
         C5        1.0000    0.90780   0.38120   0.25590   Biso      1.000     C          0.14231300000000002           
         C6        1.0000    0.88470   0.36460   0.14350   Biso      1.000     C          0.090555  
         C7        1.0000    0.93510   0.58550   0.19770   Biso      1.000     C          0.655692  
         C8        1.0000    0.92080   0.49620   0.19850   Biso      1.000     C          0.019247  
         C9        1.0000    0.83560   0.24760   0.83690   Biso      1.000     C          0.014854  
         C10       1.0000    0.89980   0.44520   0.14080   Biso      1.000     C          -0.145522           
         C11       1.0000    0.42460   0.30360   0.84190   Biso      1.000     C          0.139772  
         C12       1.0000    0.89660   0.76900   0.86560   Biso      1.000     C          -0.140679           
         C13       1.0000    0.89090   0.76270   0.80060   Biso      1.000     C          0.120426  
         C14       1.0000    0.40140   0.29610   0.73260   Biso      1.000     C          0.111202  
         C15       1.0000    0.90610   0.63790   0.80480   Biso      1.000     C          0.087506  
         C16       1.0000    0.90990   0.64050   0.86920   Biso      1.000     C          -0.13314700000000002          
         C17       1.0000    0.09010   0.35950   0.13080   Biso      1.000     C          -0.133148           
         C18       1.0000    0.59860   0.70390   0.26740   Biso      1.000     C          0.111198  
         C19       1.0000    0.19220   0.28930   0.76910   Biso      1.000     C          0.66485   
         C20       1.0000    0.16440   0.75240   0.16310   Biso      1.000     C          0.014851  
         C21       1.0000    0.36430   0.74000   0.28900   Biso      1.000     C          0.553654  
         C22       1.0000    0.51000   0.69260   0.09780   Biso      1.000     C          0.523494  
         C23       1.0000    0.89260   0.07240   0.13070   Biso      1.000     C          0.096299  
         C24       1.0000    0.07790   0.03670   0.80850   Biso      1.000     C          0.014962999999999999          
         C25       1.0000    0.91440   0.08580   0.24070   Biso      1.000     C          0.11405699999999999           
         C26       1.0000    0.88220   0.82700   0.75860   Biso      1.000     C          0.5049100000000001  
         C27       1.0000    0.28740   0.29610   0.77910   Biso      1.000     C          0.025633999999999997          
         C28       1.0000    0.02970   0.24860   0.58340   Biso      1.000     C          0.619434  
         C29       1.0000    0.09910   0.29000   0.03190   Biso      1.000     C          0.584417  
         C30       1.0000    0.09560   0.29440   0.09990   Biso      1.000     C          0.06224   
         C31       1.0000    0.34240   0.30220   0.83730   Biso      1.000     C          -0.154862           
         C32       1.0000    0.81140   0.25870   0.89220   Biso      1.000     C          -0.11686400000000001          
         C33       1.0000    0.73150   0.26770   0.88510   Biso      1.000     C          0.11614400000000001           
         C34       1.0000    0.07820   0.19550   0.49630   Biso      1.000     C          -0.12650899999999998          
         C35       1.0000    0.92180   0.80450   0.50370   Biso      1.000     C          -0.12651099999999998          
         C36       1.0000    0.92610   0.60320   0.60630   Biso      1.000     C          0.544661  
         C37       1.0000    0.92210   0.96330   0.19150   Biso      1.000     C          0.014963999999999998          
         C38       1.0000    0.86950   0.30610   0.08620   Biso      1.000     C          0.528987  
         C39       1.0000    0.68390   0.70600   0.27620   Biso      1.000     C          -0.132443           
         C40       1.0000    0.94810   0.74550   0.47640   Biso      1.000     C          0.034716000000000004          
         C41       1.0000    0.78060   0.24750   0.77470   Biso      1.000     C          -0.159748           
         C42       1.0000    0.92710   0.00940   0.24450   Biso      1.000     C          -0.120992           
         C43       1.0000    0.90130   0.99450   0.13060   Biso      1.000     C          -0.127946           
         C44       1.0000    0.70070   0.25780   0.77470   Biso      1.000     C          0.10263   
         C45       1.0000    0.90530   0.79680   0.56460   Biso      1.000     C          0.10846300000000002           
         C46       1.0000    0.92800   0.67060   0.56800   Biso      1.000     C          0.11076199999999999           
         C47       1.0000    0.92360   0.24350   0.84300   Biso      1.000     C          0.673813  
         C48       1.0000    0.94980   0.67780   0.50940   Biso      1.000     C          -0.128353           
         C49       1.0000    0.91980   0.13960   0.29540   Biso      1.000     C          0.529384  
         C50       1.0000    0.07640   0.75650   0.15700   Biso      1.000     C          0.6738029999999999  
         C51       1.0000    0.06300   0.11620   0.80610   Biso      1.000     C          0.706458  
         C52       1.0000    0.11780   0.17300   0.24140   Biso      1.000     C          0.504907  
         C53       1.0000    0.11530   0.63540   0.85650   Biso      1.000     C          0.090554  
         C54       1.0000    0.09220   0.61880   0.74410   Biso      1.000     C          0.142309  
         C55       1.0000    0.07390   0.39680   0.39370   Biso      1.000     C          0.544657  
         C56       1.0000    0.07670   0.53780   0.74570   Biso      1.000     C          -0.112603           
         C57       1.0000    0.13050   0.69390   0.91380   Biso      1.000     C          0.528991  
         C58       1.0000    0.10740   0.92760   0.86930   Biso      1.000     C          0.096301  
         C59       1.0000    0.31610   0.29400   0.72380   Biso      1.000     C          -0.132444           
         C60       1.0000    0.08020   0.86040   0.70460   Biso      1.000     C          0.5293859999999999  
         C61       1.0000    0.29930   0.74220   0.22530   Biso      1.000     C          0.10263399999999999           
         C62       1.0000    0.05020   0.32220   0.49060   Biso      1.000     C          -0.128354           
         C63       1.0000    0.07200   0.32940   0.43200   Biso      1.000     C          0.11076199999999999           
         C64       1.0000    0.09470   0.20320   0.43540   Biso      1.000     C          0.108466  
         C65       1.0000    0.09870   0.00550   0.86940   Biso      1.000     C          -0.127945           
         C66       1.0000    0.07290   0.99060   0.75550   Biso      1.000     C          -0.12099000000000001          
         C67       1.0000    0.08560   0.91420   0.75930   Biso      1.000     C          0.11406   
         C68       1.0000    0.07920   0.50380   0.80150   Biso      1.000     C          0.019249000000000002          
         C69       1.0000    0.06490   0.41450   0.80230   Biso      1.000     C          0.6556960000000001  
         C70       1.0000    0.10910   0.23730   0.19940   Biso      1.000     C          0.120426  
         C71       1.0000    0.21940   0.75250   0.22530   Biso      1.000     C          -0.159755           
         C72       1.0000    0.09390   0.36210   0.19520   Biso      1.000     C          0.08751   
         C73       1.0000    0.26850   0.73230   0.11490   Biso      1.000     C          0.116145  
         C74       1.0000    0.18860   0.74130   0.10780   Biso      1.000     C          -0.11685899999999999          
         C75       1.0000    0.10020   0.55480   0.85920   Biso      1.000     C          -0.145522           
         C76       1.0000    0.65760   0.69780   0.16270   Biso      1.000     C          -0.154886           
         C77       1.0000    0.90440   0.70560   0.90010   Biso      1.000     C          0.062238  
         C78       1.0000    0.05190   0.25450   0.52360   Biso      1.000     C          0.034711  
         C79       1.0000    0.97030   0.75140   0.41660   Biso      1.000     C          0.6194470000000001  
         C80       1.0000    0.71260   0.70390   0.22090   Biso      1.000     C          0.025660000000000002          
         C81       1.0000    0.80780   0.71070   0.23090   Biso      1.000     C          0.664851  
         C82       1.0000    0.93700   0.88380   0.19390   Biso      1.000     C          0.706446  
         C83       1.0000    0.10340   0.23100   0.13440   Biso      1.000     C          -0.140676           
         C84       1.0000    0.90090   0.71000   0.96810   Biso      1.000     C          0.584418  
         Cu1       1.0000    0.43220   0.71086   0.19027   Biso      1.000     Cu          0.65396   
         Cu2       1.0000    0.11483   0.29279   0.32177   Biso      1.000     Cu          0.678717  
         Cu3       1.0000    0.12190   0.78221   0.80893   Biso      1.000     Cu          0.679728  
         Cu4       1.0000    0.56780   0.28914   0.80973   Biso      1.000     Cu          0.6539590000000001  
         Cu5       1.0000    0.87810   0.21779   0.19107   Biso      1.000     Cu          0.679714  
         Cu6       1.0000    0.88517   0.70721   0.67823   Biso      1.000     Cu          0.678711  
         Dy1       1.0000    0.00225   0.75898   0.29576   Biso      1.000     Dy          2.0784860000000003  
         Dy2       1.0000    0.99776   0.24102   0.70424   Biso      1.000     Dy          2.078536  
         Dy3       1.0000    0.11932   0.28880   0.90701   Biso      1.000     Dy          2.070864  
         Dy4       1.0000    0.88068   0.71120   0.09299   Biso      1.000     Dy          2.070863  
         H1        1.0000    0.28010   0.29130   0.68310   Biso      1.000     H          0.149756  
         H2        1.0000    0.08980   0.40770   0.21580   Biso      1.000     H          0.10753399999999999           
         H3        1.0000    0.42220   0.29430   0.69690   Biso      1.000     H          0.117822  
         H4        1.0000    0.10480   0.18410   0.11400   Biso      1.000     H          0.14895999999999998           
         H5        1.0000    0.10370   0.53390   0.89820   Biso      1.000     H          0.150779  
         H6        1.0000    0.09160   0.64070   0.70550   Biso      1.000     H          0.121155  
         H7        1.0000    0.32450   0.30560   0.87420   Biso      1.000     H          0.12319300000000001           
         H8        1.0000    0.06090   0.00920   0.71560   Biso      1.000     H          0.147767  
         H9        1.0000    0.06400   0.50500   0.70760   Biso      1.000     H          0.14726   
         H10       1.0000    0.11730   0.90570   0.90790   Biso      1.000     H          0.115684  
         H11       1.0000    0.03440   0.36280   0.50790   Biso      1.000     H          0.15190399999999998           
         H12       1.0000    0.79600   0.24110   0.73710   Biso      1.000     H          0.133375  
         H13       1.0000    0.10600   0.16140   0.41540   Biso      1.000     H          0.116284  
         H14       1.0000    0.10630   0.03600   0.90770   Biso      1.000     H          0.143846  
         H15       1.0000    0.71380   0.27360   0.92180   Biso      1.000     H          0.112827  
         H16       1.0000    0.84750   0.26010   0.93270   Biso      1.000     H          0.149808  
         H17       1.0000    0.08360   0.40280   0.10880   Biso      1.000     H          0.142414  
         H18       1.0000    0.91530   0.84800   0.48210   Biso      1.000     H          0.14407   
         H19       1.0000    0.89520   0.81590   0.88600   Biso      1.000     H          0.14895999999999998           
         H20       1.0000    0.89370   0.96400   0.09230   Biso      1.000     H          0.143842  
         H21       1.0000    0.89400   0.83860   0.58460   Biso      1.000     H          0.116284  
         H22       1.0000    0.96560   0.63720   0.49210   Biso      1.000     H          0.15190399999999998           
         H23       1.0000    0.88270   0.09430   0.09210   Biso      1.000     H          0.11568099999999999           
         H24       1.0000    0.93600   0.49500   0.29240   Biso      1.000     H          0.147259  
         H25       1.0000    0.90840   0.35930   0.29450   Biso      1.000     H          0.121154  
         H26       1.0000    0.93910   0.99080   0.28440   Biso      1.000     H          0.147765  
         H27       1.0000    0.89630   0.46610   0.10180   Biso      1.000     H          0.150777  
         H28       1.0000    0.91640   0.59720   0.89120   Biso      1.000     H          0.142415  
         H29       1.0000    0.57780   0.70570   0.30310   Biso      1.000     H          0.11782100000000001           
         H30       1.0000    0.20400   0.75890   0.26290   Biso      1.000     H          0.13336900000000002           
         H31       1.0000    0.28620   0.72640   0.07820   Biso      1.000     H          0.112829  
         H32       1.0000    0.15250   0.73990   0.06730   Biso      1.000     H          0.149809  
         H33       1.0000    0.67550   0.69440   0.12580   Biso      1.000     H          0.123195  
         H34       1.0000    0.91020   0.59230   0.78420   Biso      1.000     H          0.10753399999999999           
         H35       1.0000    0.71990   0.70870   0.31690   Biso      1.000     H          0.149759  
         H36       1.0000    0.08470   0.15200   0.51790   Biso      1.000     H          0.144069  
         N1        1.0000    0.54670   0.69960   0.20920   Biso      1.000     N          -0.236627           
         N2        1.0000    0.89810   0.11460   0.18380   Biso      1.000     N          -0.235715           
         N3        1.0000    0.90560   0.72880   0.59470   Biso      1.000     N          -0.24751199999999998          
         N4        1.0000    0.89190   0.33400   0.20180   Biso      1.000     N          -0.25341199999999997          
         N5        1.0000    0.67760   0.26830   0.82750   Biso      1.000     N          -0.234658           
         N6        1.0000    0.32240   0.73170   0.17250   Biso      1.000     N          -0.23465500000000003          
         N7        1.0000    0.89660   0.69930   0.77050   Biso      1.000     N          -0.25414200000000003          
         N8        1.0000    0.10340   0.30070   0.22950   Biso      1.000     N          -0.25414200000000003          
         N9        1.0000    0.10190   0.88540   0.81620   Biso      1.000     N          -0.23571599999999998          
         N10       1.0000    0.09440   0.27120   0.40530   Biso      1.000     N          -0.24750999999999998          
         N11       1.0000    0.45330   0.30040   0.79080   Biso      1.000     N          -0.23662399999999997          
         N12       1.0000    0.10810   0.66600   0.79820   Biso      1.000     N          -0.253413           
         O1        1.0000    0.83090   0.70610   0.18062   Biso      1.000     O          -0.769199           
         O2        1.0000    0.52610   0.68470   0.04620   Biso      1.000     O          -0.500272           
         O3        1.0000    0.34850   0.74950   0.33940   Biso      1.000     O          -0.495608           
         O4        1.0000    0.43840   0.70010   0.10154   Biso      1.000     O          -0.5283720000000001           
         O5        1.0000    0.92750   0.61020   0.14219   Biso      1.000     O          -0.664682           
         O6        1.0000    0.86090   0.32700   0.03330   Biso      1.000     O          -0.45491899999999996          
         O7        1.0000    0.85380   0.72290   0.28650   Biso      1.000     O          -0.563673           
         O8        1.0000    0.42780   0.72420   0.28039   Biso      1.000     O          -0.549994           
         O9        1.0000    0.95300   0.62630   0.25158   Biso      1.000     O          -0.644523           
         O10       1.0000    0.05610   0.76570   0.20862   Biso      1.000     O          -0.769316           
         O11       1.0000    0.90100   0.77460   0.99587   Biso      1.000     O          -0.627262           
         O12       1.0000    0.89450   0.64590   0.99557   Biso      1.000     O          -0.647911           
         O13       1.0000    0.87310   0.89120   0.78180   Biso      1.000     O          -0.520776           
         O14       1.0000    0.92600   0.84550   0.14062   Biso      1.000     O          -0.697829           
         O15       1.0000    0.95650   0.86160   0.24542   Biso      1.000     O          -0.646019           
         O16       1.0000    0.91420   0.20870   0.28240   Biso      1.000     O          -0.561037           
         O17       1.0000    0.92300   0.11390   0.34800   Biso      1.000     O          -0.48563599999999996          
         O18       1.0000    0.90950   0.60780   0.65830   Biso      1.000     O          -0.538872           
         O19       1.0000    0.94700   0.54750   0.58610   Biso      1.000     O          -0.509624           
         O20       1.0000    0.98400   0.81710   0.39507   Biso      1.000     O          -0.6615449999999999           
         O21       1.0000    0.97450   0.69130   0.38837   Biso      1.000     O          -0.6350210000000001           
         O22       1.0000    0.02820   0.74920   0.10156   Biso      1.000     O          -0.570755           
         O23       1.0000    0.86750   0.23240   0.10140   Biso      1.000     O          -0.57391  
         O24       1.0000    0.09900   0.22540   0.00413   Biso      1.000     O          -0.627262           
         O25       1.0000    0.97180   0.25080   0.89844   Biso      1.000     O          -0.570764           
         O26       1.0000    0.10550   0.35410   0.00443   Biso      1.000     O          -0.647911           
         O27       1.0000    0.12690   0.10880   0.21820   Biso      1.000     O          -0.520766           
         O28       1.0000    0.07400   0.15450   0.85938   Biso      1.000     O          -0.697822           
         O29       1.0000    0.04350   0.13840   0.75458   Biso      1.000     O          -0.646058           
         O30       1.0000    0.08580   0.79130   0.71760   Biso      1.000     O          -0.561034           
         O31       1.0000    0.07700   0.88610   0.65200   Biso      1.000     O          -0.48563100000000003          
         O32       1.0000    0.09050   0.39220   0.34170   Biso      1.000     O          -0.538864           
         O33       1.0000    0.05300   0.45250   0.41390   Biso      1.000     O          -0.5096109999999999           
         O34       1.0000    0.01600   0.18290   0.60493   Biso      1.000     O          -0.661543           
         O35       1.0000    0.02550   0.30870   0.61163   Biso      1.000     O          -0.634984           
         O36       1.0000    0.11900   0.18670   0.29930   Biso      1.000     O          -0.5092300000000001           
         O37       1.0000    0.13250   0.76760   0.89860   Biso      1.000     O          -0.573912           
         O38       1.0000    0.13910   0.67300   0.96670   Biso      1.000     O          -0.45491800000000004          
         O39       1.0000    0.07250   0.38980   0.85781   Biso      1.000     O          -0.6646810000000001           
         O40       1.0000    0.04700   0.37370   0.74842   Biso      1.000     O          -0.6445420000000001           
         O41       1.0000    0.56160   0.29990   0.89846   Biso      1.000     O          -0.52837  
         O42       1.0000    0.47390   0.31530   0.95380   Biso      1.000     O          -0.500272           
         O43       1.0000    0.14620   0.27710   0.71350   Biso      1.000     O          -0.5636680000000001           
         O44       1.0000    0.16910   0.29390   0.81938   Biso      1.000     O          -0.769196           
         O45       1.0000    0.65150   0.25050   0.66060   Biso      1.000     O          -0.49560600000000005          
         O46       1.0000    0.57220   0.27580   0.71961   Biso      1.000     O          -0.549998           
         O47       1.0000    0.88100   0.81330   0.70070   Biso      1.000     O          -0.5092369999999999           
         O48       1.0000    0.94390   0.23430   0.79138   Biso      1.000     O          -0.769368 