
##########################################################################
#               Crystallographic Information Format file
#               Produced by PyCifRW module
#
#  This is a CIF file.  CIF has been adopted by the International
#  Union of Crystallography as the standard for data archiving and
#  transmission.
#
#  For information on this file format, follow the CIF links at
#  http://www.iucr.org
##########################################################################

data_image0

_cell_length_a                          18.6569
_cell_length_b                          18.7359
_cell_length_c                          9.4331
_cell_angle_alpha                       90
_cell_angle_beta                        94.4243
_cell_angle_gamma                       90
_symmetry_space_group_name_H-M          'P 1'
_symmetry_int_tables_number             1
loop_
  _symmetry_equiv_pos_as_xyz
         'x, y, z' 
loop_
  _atom_site_label
  _atom_site_occupancy
  _atom_site_fract_x
  _atom_site_fract_y
  _atom_site_fract_z
  _atom_site_thermal_displace_type
  _atom_site_B_iso_or_equiv
  _atom_site_type_symbol
  _atom_site_charge
         C1        1.0000    0.90244   0.90162   0.53106   Biso      1.000     C          -0.017698           
         C2        1.0000    0.57413   0.93912   0.58080   Biso      1.000     C          -0.142553           
         C3        1.0000    0.60897   0.91453   0.46012   Biso      1.000     C          -0.012739           
         C4        1.0000    0.66501   0.85129   0.48420   Biso      1.000     C          0.53875   
         C5        1.0000    0.99520   0.98128   0.43486   Biso      1.000     C          0.081556  
         C6        1.0000    0.03719   0.00239   0.32399   Biso      1.000     C          -0.142578           
         C7        1.0000    0.58240   0.94315   0.32763   Biso      1.000     C          -0.107731           
         C8        1.0000    0.94382   0.92387   0.41771   Biso      1.000     C          -0.129448           
         C9        1.0000    0.91378   0.93985   0.65994   Biso      1.000     C          -0.105275           
         C10       1.0000    0.68023   0.75000   0.93511   Biso      1.000     C          -0.091762           
         C11       1.0000    0.79218   0.68694   0.12184   Biso      1.000     C          -0.09459  
         C12       1.0000    0.79115   0.68669   0.95089   Biso      1.000     C          -0.090148           
         C13       1.0000    0.51301   0.51308   0.56739   Biso      1.000     C          0.084641  
         C14       1.0000    0.52344   0.50876   0.31407   Biso      1.000     C          -0.137979           
         C15       1.0000    0.91378   0.56015   0.65994   Biso      1.000     C          -0.105275           
         C16       1.0000    0.57413   0.56088   0.58080   Biso      1.000     C          -0.142554           
         C17       1.0000    0.60897   0.58547   0.46012   Biso      1.000     C          -0.012739           
         C18       1.0000    0.84650   0.84971   0.52206   Biso      1.000     C          0.560065  
         C19       1.0000    0.52344   0.99124   0.31407   Biso      1.000     C          -0.137979           
         C20       1.0000    0.51301   0.98692   0.56739   Biso      1.000     C          0.084641  
         C21       1.0000    0.79115   0.81331   0.95089   Biso      1.000     C          -0.090148           
         C22       1.0000    0.31920   0.25000   0.89420   Biso      1.000     C          -0.088822           
         C23       1.0000    0.31977   0.25000   0.06489   Biso      1.000     C          -0.091761           
         C24       1.0000    0.20782   0.31306   0.87816   Biso      1.000     C          -0.09459  
         C25       1.0000    0.20885   0.31331   0.04911   Biso      1.000     C          -0.090146           
         C26       1.0000    0.48699   0.48692   0.43261   Biso      1.000     C          0.084641  
         C27       1.0000    0.47656   0.49124   0.68593   Biso      1.000     C          -0.137981           
         C28       1.0000    0.08622   0.43985   0.34006   Biso      1.000     C          -0.105267           
         C29       1.0000    0.42587   0.43912   0.41920   Biso      1.000     C          -0.142549           
         C30       1.0000    0.39103   0.41453   0.53988   Biso      1.000     C          -0.012729           
         C31       1.0000    0.33499   0.35129   0.51580   Biso      1.000     C          0.53874   
         C32       1.0000    0.00480   0.48128   0.56514   Biso      1.000     C          0.081558  
         C33       1.0000    0.96281   0.50239   0.67601   Biso      1.000     C          -0.142578           
         C34       1.0000    0.41760   0.44315   0.67237   Biso      1.000     C          -0.107722           
         C35       1.0000    0.05618   0.42387   0.58229   Biso      1.000     C          -0.129445           
         C36       1.0000    0.09756   0.40162   0.46894   Biso      1.000     C          -0.017689           
         C37       1.0000    0.15350   0.34971   0.47794   Biso      1.000     C          0.560055  
         C38       1.0000    0.79218   0.81306   0.12184   Biso      1.000     C          -0.09459  
         C39       1.0000    0.66501   0.64871   0.48420   Biso      1.000     C          0.53875   
         C40       1.0000    0.99520   0.51872   0.43486   Biso      1.000     C          0.081556  
         C41       1.0000    0.68080   0.75000   0.10580   Biso      1.000     C          -0.08882  
         C42       1.0000    0.08622   0.06015   0.34006   Biso      1.000     C          -0.105267           
         C43       1.0000    0.20782   0.18694   0.87816   Biso      1.000     C          -0.094589           
         C44       1.0000    0.33499   0.14871   0.51580   Biso      1.000     C          0.538741  
         C45       1.0000    0.96281   0.99761   0.67601   Biso      1.000     C          -0.142577           
         C46       1.0000    0.39103   0.08547   0.53988   Biso      1.000     C          -0.012729           
         C47       1.0000    0.41760   0.05685   0.67237   Biso      1.000     C          -0.107722           
         C48       1.0000    0.42587   0.06088   0.41920   Biso      1.000     C          -0.14255  
         C49       1.0000    0.00480   0.01872   0.56514   Biso      1.000     C          0.081557  
         C50       1.0000    0.20885   0.18669   0.04911   Biso      1.000     C          -0.090146           
         C51       1.0000    0.84650   0.65029   0.52206   Biso      1.000     C          0.560065  
         C52       1.0000    0.05618   0.07613   0.58229   Biso      1.000     C          -0.129446           
         C53       1.0000    0.90244   0.59838   0.53106   Biso      1.000     C          -0.017698           
         C54       1.0000    0.15350   0.15029   0.47794   Biso      1.000     C          0.560055  
         C55       1.0000    0.94382   0.57613   0.41771   Biso      1.000     C          -0.129448           
         C56       1.0000    0.48699   0.01308   0.43261   Biso      1.000     C          0.084641  
         C57       1.0000    0.58240   0.55685   0.32763   Biso      1.000     C          -0.107731           
         C58       1.0000    0.03719   0.49761   0.32399   Biso      1.000     C          -0.142579           
         C59       1.0000    0.47656   0.00876   0.68593   Biso      1.000     C          -0.137982           
         C60       1.0000    0.09756   0.09838   0.46894   Biso      1.000     C          -0.017689           
         H1        1.0000    0.84939   0.81432   0.16621   Biso      1.000     H          0.088071  
         H2        1.0000    0.76778   0.86279   0.15990   Biso      1.000     H          0.096936  
         H3        1.0000    0.76562   0.86318   0.90767   Biso      1.000     H          0.087098  
         H4        1.0000    0.34964   0.20273   0.86052   Biso      1.000     H          0.089098  
         H5        1.0000    0.06358   0.39639   0.68356   Biso      1.000     H          0.110968  
         H6        1.0000    0.35023   0.29726   0.10768   Biso      1.000     H          0.088352  
         H7        1.0000    0.03204   0.52589   0.22375   Biso      1.000     H          0.104373  
         H8        1.0000    0.96796   0.47411   0.77625   Biso      1.000     H          0.104371  
         H9        1.0000    0.96796   0.02589   0.77625   Biso      1.000     H          0.104372  
         H10       1.0000    0.40555   0.07921   0.31534   Biso      1.000     H          0.114022  
         H11       1.0000    0.34964   0.29727   0.86052   Biso      1.000     H          0.089098  
         H12       1.0000    0.39318   0.07283   0.76765   Biso      1.000     H          0.106555  
         H13       1.0000    0.40555   0.42079   0.31534   Biso      1.000     H          0.114022  
         H14       1.0000    0.06358   0.10361   0.68356   Biso      1.000     H          0.110968  
         H15       1.0000    0.11609   0.42524   0.25052   Biso      1.000     H          0.10929   
         H16       1.0000    0.49414   0.51079   0.79079   Biso      1.000     H          0.104691  
         H17       1.0000    0.23438   0.36318   0.09233   Biso      1.000     H          0.087095  
         H18       1.0000    0.15215   0.31508   0.07849   Biso      1.000     H          0.084983  
         H19       1.0000    0.15061   0.31432   0.83379   Biso      1.000     H          0.088069  
         H20       1.0000    0.23222   0.36279   0.84010   Biso      1.000     H          0.096933  
         H21       1.0000    0.39318   0.42717   0.76765   Biso      1.000     H          0.106556  
         H22       1.0000    0.35023   0.20274   0.10768   Biso      1.000     H          0.088352  
         H23       1.0000    0.84785   0.81508   0.92151   Biso      1.000     H          0.084986  
         H24       1.0000    0.11609   0.07476   0.25052   Biso      1.000     H          0.10929   
         H25       1.0000    0.93642   0.60361   0.31644   Biso      1.000     H          0.110973  
         H26       1.0000    0.59445   0.57921   0.68466   Biso      1.000     H          0.114027  
         H27       1.0000    0.88391   0.57476   0.74948   Biso      1.000     H          0.109295  
         H28       1.0000    0.50586   0.48921   0.20921   Biso      1.000     H          0.104688  
         H29       1.0000    0.60682   0.57283   0.23235   Biso      1.000     H          0.10656   
         H30       1.0000    0.76562   0.63682   0.90767   Biso      1.000     H          0.087098  
         H31       1.0000    0.84785   0.68492   0.92151   Biso      1.000     H          0.084986  
         H32       1.0000    0.50586   0.01079   0.20921   Biso      1.000     H          0.104688  
         H33       1.0000    0.84939   0.68568   0.16621   Biso      1.000     H          0.088071  
         H34       1.0000    0.76778   0.63721   0.15990   Biso      1.000     H          0.096936  
         H35       1.0000    0.65036   0.70273   0.13948   Biso      1.000     H          0.089099  
         H36       1.0000    0.23222   0.13721   0.84010   Biso      1.000     H          0.096933  
         H37       1.0000    0.15061   0.18568   0.83379   Biso      1.000     H          0.088069  
         H38       1.0000    0.64977   0.79726   0.89232   Biso      1.000     H          0.088354  
         H39       1.0000    0.60682   0.92717   0.23235   Biso      1.000     H          0.10656   
         H40       1.0000    0.15215   0.18492   0.07849   Biso      1.000     H          0.084983  
         H41       1.0000    0.03204   0.97411   0.22375   Biso      1.000     H          0.104374  
         H42       1.0000    0.88391   0.92524   0.74948   Biso      1.000     H          0.109296  
         H43       1.0000    0.59445   0.92079   0.68466   Biso      1.000     H          0.114027  
         H44       1.0000    0.49414   0.98921   0.79079   Biso      1.000     H          0.104691  
         H45       1.0000    0.65036   0.79727   0.13948   Biso      1.000     H          0.089099  
         H46       1.0000    0.64977   0.70274   0.89232   Biso      1.000     H          0.088354  
         H47       1.0000    0.23438   0.13682   0.09233   Biso      1.000     H          0.087095  
         H48       1.0000    0.93642   0.89639   0.31644   Biso      1.000     H          0.110973  
         N1        1.0000    0.75497   0.75000   0.18054   Biso      1.000     N          -0.073182           
         N2        1.0000    0.24503   0.25000   0.81946   Biso      1.000     N          -0.073182           
         N3        1.0000    0.24617   0.25000   0.11850   Biso      1.000     N          -0.101148           
         N4        1.0000    0.75383   0.75000   0.88150   Biso      1.000     N          -0.101144           
         Ni1       1.0000    0.74449   0.75000   0.65013   Biso      1.000     Ni          0.706902  
         Ni2       1.0000    0.23755   0.25000   0.61872   Biso      1.000     Ni          0.751854  
         Ni3       1.0000    0.76245   0.75000   0.38128   Biso      1.000     Ni          0.751879  
         Ni4       1.0000    0.25551   0.25000   0.34987   Biso      1.000     Ni          0.70688   
         O1        1.0000    0.18425   0.17502   0.36879   Biso      1.000     O          -0.533487           
         O2        1.0000    0.17308   0.17423   0.60421   Biso      1.000     O          -0.490693           
         O3        1.0000    0.82692   0.67423   0.39579   Biso      1.000     O          -0.4907   
         O4        1.0000    0.69636   0.67346   0.37511   Biso      1.000     O          -0.492306           
         O5        1.0000    0.81575   0.67502   0.63121   Biso      1.000     O          -0.533492           
         O6        1.0000    0.67778   0.82109   0.60815   Biso      1.000     O          -0.504166           
         O7        1.0000    0.82692   0.82577   0.39579   Biso      1.000     O          -0.4907   
         O8        1.0000    0.81575   0.82498   0.63121   Biso      1.000     O          -0.533492           
         O9        1.0000    0.69636   0.82654   0.37511   Biso      1.000     O          -0.492306           
         O10       1.0000    0.67778   0.67891   0.60815   Biso      1.000     O          -0.504166           
         O11       1.0000    0.30364   0.32654   0.62489   Biso      1.000     O          -0.492301           
         O12       1.0000    0.18425   0.32498   0.36879   Biso      1.000     O          -0.533487           
         O13       1.0000    0.17308   0.32577   0.60421   Biso      1.000     O          -0.490693           
         O14       1.0000    0.32222   0.32109   0.39185   Biso      1.000     O          -0.504162           
         O15       1.0000    0.30364   0.17346   0.62489   Biso      1.000     O          -0.492301           
         O16       1.0000    0.32222   0.17891   0.39185   Biso      1.000     O          -0.504162 